LAMMPS (20 Nov 2019)
#---------------------------------------------------------------------#
#---------- Simulation of Co6Ta7 in triclinic (P1) ----#
#-------------------- Writer:: Your Name ----------------------------#
#-------------------- Temperature: 300 Kelvin -----------------------#
#---------------------------------------------------------------------#

#---------------------Define initial value
variable              Temperature equal 300     # 300 K
variable              Pressure    equal 1.01325 # 1.01325 bar
variable              Timestep    equal 0.001   # 0.001 ps=1 fs::Ref[1]

#-----------------------------------------------------------#
#----------------------Initialization-----------------------#
#-----------------------------------------------------------#

#----------------------Define units, atom_style, dimension and boundary
echo                   both
units                  metal
dimension              3
boundary               p p p
atom_style             full

#----------------------Define neighbor Algorithm and neighbor list
neighbor               2.0 bin
neigh_modify           delay 0 every 1 check yes
read_data              Co6Ta7.data
  orthogonal box = (-4.97257 -4.97257 -26.6465) to (14.8274 14.8274 79.1536)
  reading atoms ...
  312 atoms
  scanning bonds ...
  reading bonds ...
  84 bonds

#----------------------Define groups for simulation
group                  Co  type 1
168 atoms in group Co
group                  Ta  type 2
144 atoms in group Ta

#-----------------------------------------------------------------------------------#
#----------------------Setup interaction potentials between ions--------------------#
#-----------------------------------------------------------------------------------#

pair_style             meam
pair_coeff             * * library.meam Co Ta Ta_Co.meam Co Ta

#--------------------------------------------------------------------------------------#
#----Setting velocity, thermostep, thermo_style, timestep and other necessary setup----#
#--------------------------------------------------------------------------------------#
#---------------------Define thermo_style order to chose thermodynamic variable for save
thermo_style          custom   step  temp   press   ke  pe  etotal

#---------------------Define simulation time step
timestep              0.001

#-----------------------------------------#
#-------- Minimization protocols ---------#
#-----------------------------------------#
dump                   Min all atom 100 CoTa_min.atom
min_style              cg
thermo 50  # Print every step during minimization
minimize               1e-25 1e-25 10000 10000
  update every 1 steps, delay 0 steps, check yes
Step Temp Press KinEng PotEng TotEng
0            0   -1714.4617            0   -1314.8186   -1314.8186
Loop time of 16.8226 on 1 procs for 696 steps with 312 atoms

Minimization stats:
  Stopping criterion = energy tolerance
  Energy initial, next-to-last, final =
  Force two-norm initial, final = 41.9578 3.48121
  Force max component initial, final = 3.86275 1.97418
  Final line search alpha, max atom move = 9.89336e-05 0.000195312
  Iterations, force evaluations = 696 7893

undump                 Min
reset_timestep	       0

#-------------------------------------------------------------#
#---- Dynamic stage: Calculation enthalpy in NVT ensemble ----#
#-------------------------------------------------------------#

fix                   NVT_Equilibrium_Final all nvt temp 300 300 0.1

#---------------------Save the trajectories with dump command in Equilibrium stage
dump                  Equilibrium.NVT.Final all atom 100 Equilibrium.NVT.Final.atom

#-----------------------------------------------------#
#-------------- Calculation enthalpy -----------------#
#-----------------------------------------------------#

#---------------------Calculation potentials energy per atoms
compute               Potentials_energy_per_atoms_vector all pe/atom
variable              PD atom c_Potentials_energy_per_atoms_vector            # PD= Potentials_energy_per_atoms_vector for dump
compute               Potentials_energy all reduce sum c_Potentials_energy_per_atoms_vector
variable              N equal "count(all)"
variable              N1 equal count(Co)
variable              N2 equal count(Ta)
variable              n equal 6        # Co_nTa_m
variable              m equal 7
compute               ECo Co pe/atom
compute               ETa Ta pe/atom
compute               E1 Co reduce sum c_ECo
compute               E2 Ta reduce sum c_ETa
variable              Potentials_energy_per_atoms_scaller equal "c_Potentials_energy/v_N"
variable              Totenergy equal etotal                               #Kinetic+Potentials

#---------------------Calculation Temperature
compute               TEMPERATURE all   temp
variable              TEMPERATURE equal "c_TEMPERATURE"

#---------------------Calculation formation Energy and heat of formation
variable              lengtha equal "lx/2"
variable              lengthc equal "lz/2"
variable              EcCo equal -4.41  	 #Cohesive energy of Co
variable              EcTa equal -8.09           #Cohesive energy of Ta
variable              Etot equal v_Totenergy/v_N
variable              formation_energy equal -(v_Etot-v_n*v_EcCo-v_m*v_EcTa)/(22*(v_n+v_m))
variable              heat_formation equal (v_Etot*v_N-v_N1*c_E1-v_N2*c_E2)/(v_N)
thermo_style          custom step temp press etotal v_Etot c_E1 c_E2 v_formation_energy v_heat_formation v_lengtha v_lengthc
thermo 500  # Print every step during dynamics

#---------------------Dynamic run
run                   10000 # 1 ps
Step Temp Press TotEng v_Etot c_E1 c_E2 v_formation_energy v_heat_formation v_lengtha v_lengthc
0            0   -347.14358   -1578.6763     -5.05986    -553.9872   -1024.6891  -0.27283266    766.17438    9.8999995    52.900001
Averages over the last 11 of 21 rows, steps 5000 to 10000:
Temp Press TotEng v_Etot c_E1 c_E2 v_formation_energy v_heat_formation v_lengtha v_lengthc
299.253 -20.2256 -1624.05 -5.20529 -553.618 -1082.46 -0.272324 792.495 9.9 52.9
Loop time of 20.9373 on 1 procs for 10000 steps with 312 atoms

#--------------------Print flag order to show simulation is successful
print                "SIMULATION IS SUCCESSFUL DONE"
SIMULATION IS SUCCESSFUL DONE
