# generated using pymatgen
data_Ta6Co7
_symmetry_space_group_name_H-M   'P 1'
_cell_length_a   9.86000000
_cell_length_b   9.86000000
_cell_length_c   52.88000000
_cell_angle_alpha   90.00000000
_cell_angle_beta   90.00000000
_cell_angle_gamma   90.00000000
_symmetry_Int_Tables_number   1
_chemical_formula_structural   Ta6Co7
_chemical_formula_sum   'Ta144 Co168'
_cell_volume   5140.97244800
_cell_formula_units_Z   24
loop_
 _symmetry_equiv_pos_site_id
 _symmetry_equiv_pos_as_xyz
  1  'x, y, z'
loop_
 _atom_site_type_symbol
 _atom_site_label
 _atom_site_symmetry_multiplicity
 _atom_site_fract_x
 _atom_site_fract_y
 _atom_site_fract_z
 _atom_site_occupancy
  Co  Co0  1  0.00000000  0.00000000  0.00000000  1
  Co  Co0  1  0.00000000  0.00000000  0.50000000  1
  Co  Co0  1  0.00000000  0.50000000  0.00000000  1
  Co  Co0  1  0.00000000  0.50000000  0.50000000  1
  Co  Co0  1  0.50000000  0.00000000  0.00000000  1
  Co  Co0  1  0.50000000  0.00000000  0.50000000  1
  Co  Co0  1  0.50000000  0.50000000  0.00000000  1
  Co  Co0  1  0.50000000  0.50000000  0.50000000  1
  Co  Co1  1  0.41692684  0.33385367  0.12846416  1
  Co  Co1  1  0.41692684  0.33385367  0.62846416  1
  Co  Co1  1  0.41692684  0.83385367  0.12846416  1
  Co  Co1  1  0.41692684  0.83385367  0.62846416  1
  Co  Co1  1  0.91692684  0.33385367  0.12846416  1
  Co  Co1  1  0.91692684  0.33385367  0.62846416  1
  Co  Co1  1  0.91692684  0.83385367  0.12846416  1
  Co  Co1  1  0.91692684  0.83385367  0.62846416  1
  Co  Co2  1  0.41692684  0.08307317  0.12846416  1
  Co  Co2  1  0.41692684  0.08307317  0.62846416  1
  Co  Co2  1  0.41692684  0.58307317  0.12846416  1
  Co  Co2  1  0.41692684  0.58307317  0.62846416  1
  Co  Co2  1  0.91692684  0.08307317  0.12846416  1
  Co  Co2  1  0.91692684  0.08307317  0.62846416  1
  Co  Co2  1  0.91692683  0.58307317  0.12846416  1
  Co  Co2  1  0.91692683  0.58307317  0.62846416  1
  Co  Co3  1  0.16614634  0.08307317  0.12846416  1
  Co  Co3  1  0.16614634  0.08307317  0.62846416  1
  Co  Co3  1  0.16614634  0.58307317  0.12846416  1
  Co  Co3  1  0.16614634  0.58307317  0.62846416  1
  Co  Co3  1  0.66614634  0.08307317  0.12846416  1
  Co  Co3  1  0.66614634  0.08307317  0.62846416  1
  Co  Co3  1  0.66614634  0.58307317  0.12846416  1
  Co  Co3  1  0.66614634  0.58307317  0.62846416  1
  Co  Co4  1  0.16718700  0.08359350  0.03820250  1
  Co  Co4  1  0.16718700  0.08359350  0.53820250  1
  Co  Co4  1  0.16718700  0.58359350  0.03820250  1
  Co  Co4  1  0.16718700  0.58359350  0.53820250  1
  Co  Co4  1  0.66718700  0.08359350  0.03820250  1
  Co  Co4  1  0.66718700  0.08359350  0.53820250  1
  Co  Co4  1  0.66718700  0.58359350  0.03820250  1
  Co  Co4  1  0.66718700  0.58359350  0.53820250  1
  Co  Co5  1  0.41640650  0.33281300  0.03820250  1
  Co  Co5  1  0.41640650  0.33281300  0.53820250  1
  Co  Co5  1  0.41640650  0.83281300  0.03820250  1
  Co  Co5  1  0.41640650  0.83281300  0.53820250  1
  Co  Co5  1  0.91640650  0.33281300  0.03820250  1
  Co  Co5  1  0.91640650  0.33281300  0.53820250  1
  Co  Co5  1  0.91640650  0.83281300  0.03820250  1
  Co  Co5  1  0.91640650  0.83281300  0.53820250  1
  Co  Co6  1  0.41640650  0.08359350  0.03820250  1
  Co  Co6  1  0.41640650  0.08359350  0.53820250  1
  Co  Co6  1  0.41640650  0.58359350  0.03820250  1
  Co  Co6  1  0.41640650  0.58359350  0.53820250  1
  Co  Co6  1  0.91640650  0.08359350  0.03820250  1
  Co  Co6  1  0.91640650  0.08359350  0.53820250  1
  Co  Co6  1  0.91640650  0.58359350  0.03820250  1
  Co  Co6  1  0.91640650  0.58359350  0.53820250  1
  Co  Co7  1  0.33333333  0.16666667  0.16666667  1
  Co  Co7  1  0.33333333  0.16666667  0.66666667  1
  Co  Co7  1  0.33333333  0.66666667  0.16666667  1
  Co  Co7  1  0.33333333  0.66666667  0.66666667  1
  Co  Co7  1  0.83333333  0.16666667  0.16666667  1
  Co  Co7  1  0.83333333  0.16666667  0.66666667  1
  Co  Co7  1  0.83333333  0.66666667  0.16666667  1
  Co  Co7  1  0.83333333  0.66666667  0.66666667  1
  Co  Co8  1  0.25026016  0.00052034  0.29513083  1
  Co  Co8  1  0.25026016  0.00052034  0.79513083  1
  Co  Co8  1  0.25026017  0.50052034  0.29513083  1
  Co  Co8  1  0.25026017  0.50052034  0.79513083  1
  Co  Co8  1  0.75026017  0.00052034  0.29513083  1
  Co  Co8  1  0.75026017  0.00052034  0.79513083  1
  Co  Co8  1  0.75026017  0.50052034  0.29513083  1
  Co  Co8  1  0.75026017  0.50052034  0.79513083  1
  Co  Co9  1  0.25026016  0.24973983  0.29513083  1
  Co  Co9  1  0.25026016  0.24973983  0.79513083  1
  Co  Co9  1  0.25026017  0.74973984  0.29513083  1
  Co  Co9  1  0.25026017  0.74973984  0.79513083  1
  Co  Co9  1  0.75026017  0.24973983  0.29513083  1
  Co  Co9  1  0.75026017  0.24973983  0.79513083  1
  Co  Co9  1  0.75026017  0.74973984  0.29513083  1
  Co  Co9  1  0.75026017  0.74973984  0.79513083  1
  Co  Co10  1  0.49947966  0.24973983  0.29513083  1
  Co  Co10  1  0.49947966  0.24973983  0.79513083  1
  Co  Co10  1  0.49947967  0.74973984  0.29513083  1
  Co  Co10  1  0.49947967  0.74973984  0.79513083  1
  Co  Co10  1  0.99947967  0.24973983  0.29513083  1
  Co  Co10  1  0.99947967  0.24973983  0.79513083  1
  Co  Co10  1  0.99947967  0.74973984  0.29513083  1
  Co  Co10  1  0.99947967  0.74973984  0.79513083  1
  Co  Co11  1  0.00052034  0.25026016  0.20486916  1
  Co  Co11  1  0.00052034  0.25026016  0.70486916  1
  Co  Co11  1  0.00052034  0.75026017  0.20486916  1
  Co  Co11  1  0.00052034  0.75026017  0.70486916  1
  Co  Co11  1  0.50052034  0.25026016  0.20486916  1
  Co  Co11  1  0.50052034  0.25026016  0.70486916  1
  Co  Co11  1  0.50052034  0.75026017  0.20486916  1
  Co  Co11  1  0.50052034  0.75026017  0.70486916  1
  Co  Co12  1  0.24973983  0.49947967  0.20486916  1
  Co  Co12  1  0.24973983  0.49947967  0.70486916  1
  Co  Co12  1  0.24973983  0.99947967  0.20486916  1
  Co  Co12  1  0.24973983  0.99947967  0.70486916  1
  Co  Co12  1  0.74973983  0.49947967  0.20486916  1
  Co  Co12  1  0.74973983  0.49947967  0.70486916  1
  Co  Co12  1  0.74973984  0.99947967  0.20486916  1
  Co  Co12  1  0.74973984  0.99947967  0.70486916  1
  Co  Co13  1  0.24973983  0.25026016  0.20486916  1
  Co  Co13  1  0.24973983  0.25026016  0.70486916  1
  Co  Co13  1  0.24973984  0.75026017  0.20486916  1
  Co  Co13  1  0.24973984  0.75026017  0.70486916  1
  Co  Co13  1  0.74973984  0.25026016  0.20486916  1
  Co  Co13  1  0.74973984  0.25026016  0.70486916  1
  Co  Co13  1  0.74973984  0.75026017  0.20486916  1
  Co  Co13  1  0.74973984  0.75026017  0.70486916  1
  Co  Co14  1  0.16666667  0.33333333  0.33333333  1
  Co  Co14  1  0.16666667  0.33333333  0.83333333  1
  Co  Co14  1  0.16666667  0.83333333  0.33333333  1
  Co  Co14  1  0.16666667  0.83333333  0.83333333  1
  Co  Co14  1  0.66666667  0.33333333  0.33333333  1
  Co  Co14  1  0.66666667  0.33333333  0.83333333  1
  Co  Co14  1  0.66666667  0.83333333  0.33333333  1
  Co  Co14  1  0.66666667  0.83333333  0.83333333  1
  Co  Co15  1  0.08359350  0.16718700  0.46179750  1
  Co  Co15  1  0.08359350  0.16718700  0.96179750  1
  Co  Co15  1  0.08359350  0.66718700  0.46179750  1
  Co  Co15  1  0.08359350  0.66718700  0.96179750  1
  Co  Co15  1  0.58359350  0.16718700  0.46179750  1
  Co  Co15  1  0.58359350  0.16718700  0.96179750  1
  Co  Co15  1  0.58359350  0.66718700  0.46179750  1
  Co  Co15  1  0.58359350  0.66718700  0.96179750  1
  Co  Co16  1  0.08359350  0.41640650  0.46179750  1
  Co  Co16  1  0.08359350  0.41640650  0.96179750  1
  Co  Co16  1  0.08359350  0.91640650  0.46179750  1
  Co  Co16  1  0.08359350  0.91640650  0.96179750  1
  Co  Co16  1  0.58359350  0.41640650  0.46179750  1
  Co  Co16  1  0.58359350  0.41640650  0.96179750  1
  Co  Co16  1  0.58359350  0.91640650  0.46179750  1
  Co  Co16  1  0.58359350  0.91640650  0.96179750  1
  Co  Co17  1  0.33281300  0.41640650  0.46179750  1
  Co  Co17  1  0.33281300  0.41640650  0.96179750  1
  Co  Co17  1  0.33281300  0.91640650  0.46179750  1
  Co  Co17  1  0.33281300  0.91640650  0.96179750  1
  Co  Co17  1  0.83281300  0.41640650  0.46179750  1
  Co  Co17  1  0.83281300  0.41640650  0.96179750  1
  Co  Co17  1  0.83281300  0.91640650  0.46179750  1
  Co  Co17  1  0.83281300  0.91640650  0.96179750  1
  Co  Co18  1  0.33385367  0.41692684  0.37153583  1
  Co  Co18  1  0.33385367  0.41692684  0.87153583  1
  Co  Co18  1  0.33385367  0.91692684  0.37153583  1
  Co  Co18  1  0.33385367  0.91692684  0.87153583  1
  Co  Co18  1  0.83385367  0.41692684  0.37153583  1
  Co  Co18  1  0.83385367  0.41692684  0.87153583  1
  Co  Co18  1  0.83385367  0.91692684  0.37153583  1
  Co  Co18  1  0.83385367  0.91692684  0.87153583  1
  Co  Co19  1  0.08307317  0.16614634  0.37153583  1
  Co  Co19  1  0.08307317  0.16614634  0.87153583  1
  Co  Co19  1  0.08307317  0.66614634  0.37153583  1
  Co  Co19  1  0.08307317  0.66614634  0.87153583  1
  Co  Co19  1  0.58307317  0.16614634  0.37153583  1
  Co  Co19  1  0.58307317  0.16614634  0.87153583  1
  Co  Co19  1  0.58307317  0.66614634  0.37153583  1
  Co  Co19  1  0.58307317  0.66614634  0.87153583  1
  Co  Co20  1  0.08307317  0.41692684  0.37153583  1
  Co  Co20  1  0.08307317  0.41692684  0.87153583  1
  Co  Co20  1  0.08307317  0.91692684  0.37153583  1
  Co  Co20  1  0.08307317  0.91692684  0.87153583  1
  Co  Co20  1  0.58307316  0.41692684  0.37153583  1
  Co  Co20  1  0.58307316  0.41692684  0.87153583  1
  Co  Co20  1  0.58307317  0.91692684  0.37153583  1
  Co  Co20  1  0.58307317  0.91692684  0.87153583  1
  Ta  Ta21  1  0.00000000  0.00000000  0.08305000  1
  Ta  Ta21  1  0.00000000  0.00000000  0.58305000  1
  Ta  Ta21  1  0.00000000  0.50000000  0.08305000  1
  Ta  Ta21  1  0.00000000  0.50000000  0.58305000  1
  Ta  Ta21  1  0.50000000  0.00000000  0.08305000  1
  Ta  Ta21  1  0.50000000  0.00000000  0.58305000  1
  Ta  Ta21  1  0.50000000  0.50000000  0.08305000  1
  Ta  Ta21  1  0.50000000  0.50000000  0.58305000  1
  Ta  Ta22  1  0.33333333  0.16666667  0.08361667  1
  Ta  Ta22  1  0.33333333  0.16666667  0.58361666  1
  Ta  Ta22  1  0.33333333  0.66666667  0.08361666  1
  Ta  Ta22  1  0.33333333  0.66666667  0.58361666  1
  Ta  Ta22  1  0.83333333  0.16666667  0.08361666  1
  Ta  Ta22  1  0.83333333  0.16666667  0.58361666  1
  Ta  Ta22  1  0.83333333  0.66666667  0.08361667  1
  Ta  Ta22  1  0.83333333  0.66666667  0.58361666  1
  Ta  Ta23  1  0.16666667  0.33333333  0.00705183  1
  Ta  Ta23  1  0.16666667  0.33333333  0.50705183  1
  Ta  Ta23  1  0.16666667  0.83333333  0.00705183  1
  Ta  Ta23  1  0.16666667  0.83333333  0.50705183  1
  Ta  Ta23  1  0.66666667  0.33333333  0.00705183  1
  Ta  Ta23  1  0.66666667  0.33333333  0.50705183  1
  Ta  Ta23  1  0.66666667  0.83333333  0.00705183  1
  Ta  Ta23  1  0.66666667  0.83333333  0.50705183  1
  Ta  Ta24  1  0.16666667  0.33333333  0.15961484  1
  Ta  Ta24  1  0.16666667  0.33333333  0.65961483  1
  Ta  Ta24  1  0.16666667  0.83333333  0.15961483  1
  Ta  Ta24  1  0.16666667  0.83333333  0.65961483  1
  Ta  Ta24  1  0.66666667  0.33333333  0.15961483  1
  Ta  Ta24  1  0.66666667  0.33333333  0.65961483  1
  Ta  Ta24  1  0.66666667  0.83333333  0.15961483  1
  Ta  Ta24  1  0.66666667  0.83333333  0.65961483  1
  Ta  Ta25  1  0.16666667  0.33333333  0.05851833  1
  Ta  Ta25  1  0.16666667  0.33333333  0.55851833  1
  Ta  Ta25  1  0.16666667  0.83333333  0.05851833  1
  Ta  Ta25  1  0.16666667  0.83333333  0.55851833  1
  Ta  Ta25  1  0.66666667  0.33333333  0.05851833  1
  Ta  Ta25  1  0.66666667  0.33333333  0.55851833  1
  Ta  Ta25  1  0.66666667  0.83333333  0.05851833  1
  Ta  Ta25  1  0.66666667  0.83333333  0.55851833  1
  Ta  Ta26  1  0.16666667  0.33333333  0.10814833  1
  Ta  Ta26  1  0.16666667  0.33333333  0.60814833  1
  Ta  Ta26  1  0.16666667  0.83333333  0.10814833  1
  Ta  Ta26  1  0.16666667  0.83333333  0.60814833  1
  Ta  Ta26  1  0.66666667  0.33333333  0.10814833  1
  Ta  Ta26  1  0.66666667  0.33333333  0.60814833  1
  Ta  Ta26  1  0.66666667  0.83333333  0.10814833  1
  Ta  Ta26  1  0.66666667  0.83333333  0.60814833  1
  Ta  Ta27  1  0.33333333  0.16666667  0.24971666  1
  Ta  Ta27  1  0.33333333  0.16666667  0.74971666  1
  Ta  Ta27  1  0.33333333  0.66666667  0.24971666  1
  Ta  Ta27  1  0.33333333  0.66666667  0.74971666  1
  Ta  Ta27  1  0.83333333  0.16666667  0.24971666  1
  Ta  Ta27  1  0.83333333  0.16666667  0.74971666  1
  Ta  Ta27  1  0.83333333  0.66666667  0.24971666  1
  Ta  Ta27  1  0.83333333  0.66666667  0.74971666  1
  Ta  Ta28  1  0.16666667  0.33333333  0.25028333  1
  Ta  Ta28  1  0.16666667  0.33333333  0.75028333  1
  Ta  Ta28  1  0.16666667  0.83333333  0.25028333  1
  Ta  Ta28  1  0.16666667  0.83333333  0.75028333  1
  Ta  Ta28  1  0.66666667  0.33333333  0.25028333  1
  Ta  Ta28  1  0.66666667  0.33333333  0.75028333  1
  Ta  Ta28  1  0.66666667  0.83333333  0.25028333  1
  Ta  Ta28  1  0.66666667  0.83333333  0.75028333  1
  Ta  Ta29  1  0.00000000  0.00000000  0.17371850  1
  Ta  Ta29  1  0.00000000  0.00000000  0.67371850  1
  Ta  Ta29  1  0.00000000  0.50000000  0.17371850  1
  Ta  Ta29  1  0.00000000  0.50000000  0.67371850  1
  Ta  Ta29  1  0.50000000  0.00000000  0.17371850  1
  Ta  Ta29  1  0.50000000  0.00000000  0.67371850  1
  Ta  Ta29  1  0.50000000  0.50000000  0.17371850  1
  Ta  Ta29  1  0.50000000  0.50000000  0.67371850  1
  Ta  Ta30  1  0.00000000  0.00000000  0.32628150  1
  Ta  Ta30  1  0.00000000  0.00000000  0.82628150  1
  Ta  Ta30  1  0.00000000  0.50000000  0.32628150  1
  Ta  Ta30  1  0.00000000  0.50000000  0.82628150  1
  Ta  Ta30  1  0.50000000  0.00000000  0.32628150  1
  Ta  Ta30  1  0.50000000  0.00000000  0.82628150  1
  Ta  Ta30  1  0.50000000  0.50000000  0.32628150  1
  Ta  Ta30  1  0.50000000  0.50000000  0.82628150  1
  Ta  Ta31  1  0.00000000  0.00000000  0.22518500  1
  Ta  Ta31  1  0.00000000  0.00000000  0.72518500  1
  Ta  Ta31  1  0.00000000  0.50000000  0.22518500  1
  Ta  Ta31  1  0.00000000  0.50000000  0.72518500  1
  Ta  Ta31  1  0.50000000  0.00000000  0.22518500  1
  Ta  Ta31  1  0.50000000  0.00000000  0.72518500  1
  Ta  Ta31  1  0.50000000  0.50000000  0.22518500  1
  Ta  Ta31  1  0.50000000  0.50000000  0.72518500  1
  Ta  Ta32  1  0.00000000  0.00000000  0.27481500  1
  Ta  Ta32  1  0.00000000  0.00000000  0.77481500  1
  Ta  Ta32  1  0.00000000  0.50000000  0.27481500  1
  Ta  Ta32  1  0.00000000  0.50000000  0.77481500  1
  Ta  Ta32  1  0.50000000  0.00000000  0.27481500  1
  Ta  Ta32  1  0.50000000  0.00000000  0.77481500  1
  Ta  Ta32  1  0.50000000  0.50000000  0.27481500  1
  Ta  Ta32  1  0.50000000  0.50000000  0.77481500  1
  Ta  Ta33  1  0.16666667  0.33333333  0.41638334  1
  Ta  Ta33  1  0.16666667  0.33333333  0.91638334  1
  Ta  Ta33  1  0.16666667  0.83333333  0.41638334  1
  Ta  Ta33  1  0.16666667  0.83333333  0.91638334  1
  Ta  Ta33  1  0.66666667  0.33333333  0.41638334  1
  Ta  Ta33  1  0.66666667  0.33333333  0.91638334  1
  Ta  Ta33  1  0.66666667  0.83333333  0.41638334  1
  Ta  Ta33  1  0.66666667  0.83333333  0.91638334  1
  Ta  Ta34  1  0.00000000  0.00000000  0.41695000  1
  Ta  Ta34  1  0.00000000  0.00000000  0.91695000  1
  Ta  Ta34  1  0.00000000  0.50000000  0.41695000  1
  Ta  Ta34  1  0.00000000  0.50000000  0.91695000  1
  Ta  Ta34  1  0.50000000  0.00000000  0.41695000  1
  Ta  Ta34  1  0.50000000  0.00000000  0.91695000  1
  Ta  Ta34  1  0.50000000  0.50000000  0.41695000  1
  Ta  Ta34  1  0.50000000  0.50000000  0.91695000  1
  Ta  Ta35  1  0.33333333  0.16666667  0.34038516  1
  Ta  Ta35  1  0.33333333  0.16666667  0.84038516  1
  Ta  Ta35  1  0.33333333  0.66666667  0.34038516  1
  Ta  Ta35  1  0.33333333  0.66666667  0.84038516  1
  Ta  Ta35  1  0.83333333  0.16666667  0.34038516  1
  Ta  Ta35  1  0.83333333  0.16666667  0.84038516  1
  Ta  Ta35  1  0.83333333  0.66666667  0.34038516  1
  Ta  Ta35  1  0.83333333  0.66666667  0.84038516  1
  Ta  Ta36  1  0.33333333  0.16666667  0.49294816  1
  Ta  Ta36  1  0.33333333  0.16666667  0.99294816  1
  Ta  Ta36  1  0.33333333  0.66666667  0.49294816  1
  Ta  Ta36  1  0.33333333  0.66666667  0.99294816  1
  Ta  Ta36  1  0.83333333  0.16666667  0.49294816  1
  Ta  Ta36  1  0.83333333  0.16666667  0.99294816  1
  Ta  Ta36  1  0.83333333  0.66666667  0.49294816  1
  Ta  Ta36  1  0.83333333  0.66666667  0.99294816  1
  Ta  Ta37  1  0.33333333  0.16666667  0.39185166  1
  Ta  Ta37  1  0.33333333  0.16666667  0.89185166  1
  Ta  Ta37  1  0.33333333  0.66666667  0.39185166  1
  Ta  Ta37  1  0.33333333  0.66666667  0.89185166  1
  Ta  Ta37  1  0.83333333  0.16666667  0.39185166  1
  Ta  Ta37  1  0.83333333  0.16666667  0.89185166  1
  Ta  Ta37  1  0.83333333  0.66666667  0.39185166  1
  Ta  Ta37  1  0.83333333  0.66666667  0.89185166  1
  Ta  Ta38  1  0.33333333  0.16666667  0.44148167  1
  Ta  Ta38  1  0.33333333  0.16666667  0.94148166  1
  Ta  Ta38  1  0.33333333  0.66666667  0.44148167  1
  Ta  Ta38  1  0.33333333  0.66666667  0.94148166  1
  Ta  Ta38  1  0.83333333  0.16666667  0.44148167  1
  Ta  Ta38  1  0.83333333  0.16666667  0.94148166  1
  Ta  Ta38  1  0.83333333  0.66666667  0.44148167  1
  Ta  Ta38  1  0.83333333  0.66666667  0.94148166  1
