# generated using pymatgen
data_Ta2Co
_symmetry_space_group_name_H-M   'P 1'
_cell_length_a   18.36000000
_cell_length_b   18.36000000
_cell_length_c   14.91000000
_cell_angle_alpha   90.00000000
_cell_angle_beta   90.00000000
_cell_angle_gamma   90.00000000
_symmetry_Int_Tables_number   1
_chemical_formula_structural   Ta2Co
_chemical_formula_sum   'Ta216 Co108'
_cell_volume   5026.00593600
_cell_formula_units_Z   108
loop_
 _symmetry_equiv_pos_site_id
 _symmetry_equiv_pos_as_xyz
  1  'x, y, z'
loop_
 _atom_site_type_symbol
 _atom_site_label
 _atom_site_symmetry_multiplicity
 _atom_site_fract_x
 _atom_site_fract_y
 _atom_site_fract_z
 _atom_site_occupancy
  Ta  Ta  1  0.05270000  0.21936667  0.00000000  1
  Ta  Ta  1  0.05270000  0.21936667  0.33333333  1
  Ta  Ta  1  0.05270000  0.21936667  0.66666667  1
  Ta  Ta  1  0.05270000  0.55270000  0.00000000  1
  Ta  Ta  1  0.05270000  0.55270000  0.33333333  1
  Ta  Ta  1  0.05270000  0.55270000  0.66666667  1
  Ta  Ta  1  0.05270000  0.88603333  0.00000000  1
  Ta  Ta  1  0.05270000  0.88603333  0.33333333  1
  Ta  Ta  1  0.05270000  0.88603333  0.66666667  1
  Ta  Ta  1  0.38603333  0.21936667  0.00000000  1
  Ta  Ta  1  0.38603333  0.21936667  0.33333333  1
  Ta  Ta  1  0.38603333  0.21936667  0.66666667  1
  Ta  Ta  1  0.38603333  0.55270000  0.00000000  1
  Ta  Ta  1  0.38603333  0.55270000  0.33333333  1
  Ta  Ta  1  0.38603333  0.55270000  0.66666667  1
  Ta  Ta  1  0.38603333  0.88603333  0.00000000  1
  Ta  Ta  1  0.38603333  0.88603333  0.33333333  1
  Ta  Ta  1  0.38603333  0.88603333  0.66666667  1
  Ta  Ta  1  0.71936667  0.21936667  0.00000000  1
  Ta  Ta  1  0.71936667  0.21936667  0.33333333  1
  Ta  Ta  1  0.71936667  0.21936667  0.66666667  1
  Ta  Ta  1  0.71936667  0.55270000  0.00000000  1
  Ta  Ta  1  0.71936667  0.55270000  0.33333333  1
  Ta  Ta  1  0.71936667  0.55270000  0.66666667  1
  Ta  Ta  1  0.71936667  0.88603333  0.00000000  1
  Ta  Ta  1  0.71936667  0.88603333  0.33333333  1
  Ta  Ta  1  0.71936667  0.88603333  0.66666667  1
  Ta  Ta  1  0.21936667  0.05270000  0.16666667  1
  Ta  Ta  1  0.21936667  0.05270000  0.50000000  1
  Ta  Ta  1  0.21936667  0.05270000  0.83333333  1
  Ta  Ta  1  0.21936667  0.38603333  0.16666667  1
  Ta  Ta  1  0.21936667  0.38603333  0.50000000  1
  Ta  Ta  1  0.21936667  0.38603333  0.83333333  1
  Ta  Ta  1  0.21936667  0.71936667  0.16666667  1
  Ta  Ta  1  0.21936667  0.71936667  0.50000000  1
  Ta  Ta  1  0.21936667  0.71936667  0.83333333  1
  Ta  Ta  1  0.55270000  0.05270000  0.16666667  1
  Ta  Ta  1  0.55270000  0.05270000  0.50000000  1
  Ta  Ta  1  0.55270000  0.05270000  0.83333333  1
  Ta  Ta  1  0.55270000  0.38603333  0.16666667  1
  Ta  Ta  1  0.55270000  0.38603333  0.50000000  1
  Ta  Ta  1  0.55270000  0.38603333  0.83333333  1
  Ta  Ta  1  0.55270000  0.71936667  0.16666667  1
  Ta  Ta  1  0.55270000  0.71936667  0.50000000  1
  Ta  Ta  1  0.55270000  0.71936667  0.83333333  1
  Ta  Ta  1  0.88603333  0.05270000  0.16666667  1
  Ta  Ta  1  0.88603333  0.05270000  0.50000000  1
  Ta  Ta  1  0.88603333  0.05270000  0.83333333  1
  Ta  Ta  1  0.88603333  0.38603333  0.16666667  1
  Ta  Ta  1  0.88603333  0.38603333  0.50000000  1
  Ta  Ta  1  0.88603333  0.38603333  0.83333333  1
  Ta  Ta  1  0.88603333  0.71936667  0.16666667  1
  Ta  Ta  1  0.88603333  0.71936667  0.50000000  1
  Ta  Ta  1  0.88603333  0.71936667  0.83333333  1
  Ta  Ta  1  0.11396667  0.28063333  0.16666667  1
  Ta  Ta  1  0.11396667  0.28063333  0.50000000  1
  Ta  Ta  1  0.11396667  0.28063333  0.83333333  1
  Ta  Ta  1  0.11396667  0.61396667  0.16666667  1
  Ta  Ta  1  0.11396667  0.61396667  0.50000000  1
  Ta  Ta  1  0.11396667  0.61396667  0.83333333  1
  Ta  Ta  1  0.11396667  0.94730000  0.16666667  1
  Ta  Ta  1  0.11396667  0.94730000  0.50000000  1
  Ta  Ta  1  0.11396667  0.94730000  0.83333333  1
  Ta  Ta  1  0.44730000  0.28063333  0.16666667  1
  Ta  Ta  1  0.44730000  0.28063333  0.50000000  1
  Ta  Ta  1  0.44730000  0.28063333  0.83333333  1
  Ta  Ta  1  0.44730000  0.61396667  0.16666667  1
  Ta  Ta  1  0.44730000  0.61396667  0.50000000  1
  Ta  Ta  1  0.44730000  0.61396667  0.83333333  1
  Ta  Ta  1  0.44730000  0.94730000  0.16666667  1
  Ta  Ta  1  0.44730000  0.94730000  0.50000000  1
  Ta  Ta  1  0.44730000  0.94730000  0.83333333  1
  Ta  Ta  1  0.78063333  0.28063333  0.16666667  1
  Ta  Ta  1  0.78063333  0.28063333  0.50000000  1
  Ta  Ta  1  0.78063333  0.28063333  0.83333333  1
  Ta  Ta  1  0.78063333  0.61396667  0.16666667  1
  Ta  Ta  1  0.78063333  0.61396667  0.50000000  1
  Ta  Ta  1  0.78063333  0.61396667  0.83333333  1
  Ta  Ta  1  0.78063333  0.94730000  0.16666667  1
  Ta  Ta  1  0.78063333  0.94730000  0.50000000  1
  Ta  Ta  1  0.78063333  0.94730000  0.83333333  1
  Ta  Ta  1  0.28063333  0.11396667  0.00000000  1
  Ta  Ta  1  0.28063333  0.11396667  0.33333333  1
  Ta  Ta  1  0.28063333  0.11396667  0.66666667  1
  Ta  Ta  1  0.28063333  0.44730000  0.00000000  1
  Ta  Ta  1  0.28063333  0.44730000  0.33333333  1
  Ta  Ta  1  0.28063333  0.44730000  0.66666667  1
  Ta  Ta  1  0.28063333  0.78063333  0.00000000  1
  Ta  Ta  1  0.28063333  0.78063333  0.33333333  1
  Ta  Ta  1  0.28063333  0.78063333  0.66666667  1
  Ta  Ta  1  0.61396667  0.11396667  0.00000000  1
  Ta  Ta  1  0.61396667  0.11396667  0.33333333  1
  Ta  Ta  1  0.61396667  0.11396667  0.66666667  1
  Ta  Ta  1  0.61396667  0.44730000  0.00000000  1
  Ta  Ta  1  0.61396667  0.44730000  0.33333333  1
  Ta  Ta  1  0.61396667  0.44730000  0.66666667  1
  Ta  Ta  1  0.61396667  0.78063333  0.00000000  1
  Ta  Ta  1  0.61396667  0.78063333  0.33333333  1
  Ta  Ta  1  0.61396667  0.78063333  0.66666667  1
  Ta  Ta  1  0.94730000  0.11396667  0.00000000  1
  Ta  Ta  1  0.94730000  0.11396667  0.33333333  1
  Ta  Ta  1  0.94730000  0.11396667  0.66666667  1
  Ta  Ta  1  0.94730000  0.44730000  0.00000000  1
  Ta  Ta  1  0.94730000  0.44730000  0.33333333  1
  Ta  Ta  1  0.94730000  0.44730000  0.66666667  1
  Ta  Ta  1  0.94730000  0.78063333  0.00000000  1
  Ta  Ta  1  0.94730000  0.78063333  0.33333333  1
  Ta  Ta  1  0.94730000  0.78063333  0.66666667  1
  Ta  Ta  1  0.21936667  0.28063333  0.00000000  1
  Ta  Ta  1  0.21936667  0.28063333  0.33333333  1
  Ta  Ta  1  0.21936667  0.28063333  0.66666667  1
  Ta  Ta  1  0.21936667  0.61396667  0.00000000  1
  Ta  Ta  1  0.21936667  0.61396667  0.33333333  1
  Ta  Ta  1  0.21936667  0.61396667  0.66666667  1
  Ta  Ta  1  0.21936667  0.94730000  0.00000000  1
  Ta  Ta  1  0.21936667  0.94730000  0.33333333  1
  Ta  Ta  1  0.21936667  0.94730000  0.66666667  1
  Ta  Ta  1  0.55270000  0.28063333  0.00000000  1
  Ta  Ta  1  0.55270000  0.28063333  0.33333333  1
  Ta  Ta  1  0.55270000  0.28063333  0.66666667  1
  Ta  Ta  1  0.55270000  0.61396667  0.00000000  1
  Ta  Ta  1  0.55270000  0.61396667  0.33333333  1
  Ta  Ta  1  0.55270000  0.61396667  0.66666667  1
  Ta  Ta  1  0.55270000  0.94730000  0.00000000  1
  Ta  Ta  1  0.55270000  0.94730000  0.33333333  1
  Ta  Ta  1  0.55270000  0.94730000  0.66666667  1
  Ta  Ta  1  0.88603333  0.28063333  0.00000000  1
  Ta  Ta  1  0.88603333  0.28063333  0.33333333  1
  Ta  Ta  1  0.88603333  0.28063333  0.66666667  1
  Ta  Ta  1  0.88603333  0.61396667  0.00000000  1
  Ta  Ta  1  0.88603333  0.61396667  0.33333333  1
  Ta  Ta  1  0.88603333  0.61396667  0.66666667  1
  Ta  Ta  1  0.88603333  0.94730000  0.00000000  1
  Ta  Ta  1  0.88603333  0.94730000  0.33333333  1
  Ta  Ta  1  0.88603333  0.94730000  0.66666667  1
  Ta  Ta  1  0.05270000  0.11396667  0.16666667  1
  Ta  Ta  1  0.05270000  0.11396667  0.50000000  1
  Ta  Ta  1  0.05270000  0.11396667  0.83333333  1
  Ta  Ta  1  0.05270000  0.44730000  0.16666667  1
  Ta  Ta  1  0.05270000  0.44730000  0.50000000  1
  Ta  Ta  1  0.05270000  0.44730000  0.83333333  1
  Ta  Ta  1  0.05270000  0.78063333  0.16666667  1
  Ta  Ta  1  0.05270000  0.78063333  0.50000000  1
  Ta  Ta  1  0.05270000  0.78063333  0.83333333  1
  Ta  Ta  1  0.38603333  0.11396667  0.16666667  1
  Ta  Ta  1  0.38603333  0.11396667  0.50000000  1
  Ta  Ta  1  0.38603333  0.11396667  0.83333333  1
  Ta  Ta  1  0.38603333  0.44730000  0.16666667  1
  Ta  Ta  1  0.38603333  0.44730000  0.50000000  1
  Ta  Ta  1  0.38603333  0.44730000  0.83333333  1
  Ta  Ta  1  0.38603333  0.78063333  0.16666667  1
  Ta  Ta  1  0.38603333  0.78063333  0.50000000  1
  Ta  Ta  1  0.38603333  0.78063333  0.83333333  1
  Ta  Ta  1  0.71936667  0.11396667  0.16666667  1
  Ta  Ta  1  0.71936667  0.11396667  0.50000000  1
  Ta  Ta  1  0.71936667  0.11396667  0.83333333  1
  Ta  Ta  1  0.71936667  0.44730000  0.16666667  1
  Ta  Ta  1  0.71936667  0.44730000  0.50000000  1
  Ta  Ta  1  0.71936667  0.44730000  0.83333333  1
  Ta  Ta  1  0.71936667  0.78063333  0.16666667  1
  Ta  Ta  1  0.71936667  0.78063333  0.50000000  1
  Ta  Ta  1  0.71936667  0.78063333  0.83333333  1
  Ta  Ta  1  0.11396667  0.05270000  0.00000000  1
  Ta  Ta  1  0.11396667  0.05270000  0.33333333  1
  Ta  Ta  1  0.11396667  0.05270000  0.66666667  1
  Ta  Ta  1  0.11396667  0.38603333  0.00000000  1
  Ta  Ta  1  0.11396667  0.38603333  0.33333333  1
  Ta  Ta  1  0.11396667  0.38603333  0.66666667  1
  Ta  Ta  1  0.11396667  0.71936667  0.00000000  1
  Ta  Ta  1  0.11396667  0.71936667  0.33333333  1
  Ta  Ta  1  0.11396667  0.71936667  0.66666667  1
  Ta  Ta  1  0.44730000  0.05270000  0.00000000  1
  Ta  Ta  1  0.44730000  0.05270000  0.33333333  1
  Ta  Ta  1  0.44730000  0.05270000  0.66666667  1
  Ta  Ta  1  0.44730000  0.38603333  0.00000000  1
  Ta  Ta  1  0.44730000  0.38603333  0.33333333  1
  Ta  Ta  1  0.44730000  0.38603333  0.66666667  1
  Ta  Ta  1  0.44730000  0.71936667  0.00000000  1
  Ta  Ta  1  0.44730000  0.71936667  0.33333333  1
  Ta  Ta  1  0.44730000  0.71936667  0.66666667  1
  Ta  Ta  1  0.78063333  0.05270000  0.00000000  1
  Ta  Ta  1  0.78063333  0.05270000  0.33333333  1
  Ta  Ta  1  0.78063333  0.05270000  0.66666667  1
  Ta  Ta  1  0.78063333  0.38603333  0.00000000  1
  Ta  Ta  1  0.78063333  0.38603333  0.33333333  1
  Ta  Ta  1  0.78063333  0.38603333  0.66666667  1
  Ta  Ta  1  0.78063333  0.71936667  0.00000000  1
  Ta  Ta  1  0.78063333  0.71936667  0.33333333  1
  Ta  Ta  1  0.78063333  0.71936667  0.66666667  1
  Ta  Ta  1  0.28063333  0.21936667  0.16666667  1
  Ta  Ta  1  0.28063333  0.21936667  0.50000000  1
  Ta  Ta  1  0.28063333  0.21936667  0.83333333  1
  Ta  Ta  1  0.28063333  0.55270000  0.16666667  1
  Ta  Ta  1  0.28063333  0.55270000  0.50000000  1
  Ta  Ta  1  0.28063333  0.55270000  0.83333333  1
  Ta  Ta  1  0.28063333  0.88603333  0.16666667  1
  Ta  Ta  1  0.28063333  0.88603333  0.50000000  1
  Ta  Ta  1  0.28063333  0.88603333  0.83333333  1
  Ta  Ta  1  0.61396667  0.21936667  0.16666667  1
  Ta  Ta  1  0.61396667  0.21936667  0.50000000  1
  Ta  Ta  1  0.61396667  0.21936667  0.83333333  1
  Ta  Ta  1  0.61396667  0.55270000  0.16666667  1
  Ta  Ta  1  0.61396667  0.55270000  0.50000000  1
  Ta  Ta  1  0.61396667  0.55270000  0.83333333  1
  Ta  Ta  1  0.61396667  0.88603333  0.16666667  1
  Ta  Ta  1  0.61396667  0.88603333  0.50000000  1
  Ta  Ta  1  0.61396667  0.88603333  0.83333333  1
  Ta  Ta  1  0.94730000  0.21936667  0.16666667  1
  Ta  Ta  1  0.94730000  0.21936667  0.50000000  1
  Ta  Ta  1  0.94730000  0.21936667  0.83333333  1
  Ta  Ta  1  0.94730000  0.55270000  0.16666667  1
  Ta  Ta  1  0.94730000  0.55270000  0.50000000  1
  Ta  Ta  1  0.94730000  0.55270000  0.83333333  1
  Ta  Ta  1  0.94730000  0.88603333  0.16666667  1
  Ta  Ta  1  0.94730000  0.88603333  0.50000000  1
  Ta  Ta  1  0.94730000  0.88603333  0.83333333  1
  Co  Co  1  0.00000000  0.00000000  0.08333333  1
  Co  Co  1  0.00000000  0.00000000  0.41666667  1
  Co  Co  1  0.00000000  0.00000000  0.75000000  1
  Co  Co  1  0.00000000  0.33333333  0.08333333  1
  Co  Co  1  0.00000000  0.33333333  0.41666667  1
  Co  Co  1  0.00000000  0.33333333  0.75000000  1
  Co  Co  1  0.00000000  0.66666667  0.08333333  1
  Co  Co  1  0.00000000  0.66666667  0.41666667  1
  Co  Co  1  0.00000000  0.66666667  0.75000000  1
  Co  Co  1  0.33333333  0.00000000  0.08333333  1
  Co  Co  1  0.33333333  0.00000000  0.41666667  1
  Co  Co  1  0.33333333  0.00000000  0.75000000  1
  Co  Co  1  0.33333333  0.33333333  0.08333333  1
  Co  Co  1  0.33333333  0.33333333  0.41666667  1
  Co  Co  1  0.33333333  0.33333333  0.75000000  1
  Co  Co  1  0.33333333  0.66666667  0.08333333  1
  Co  Co  1  0.33333333  0.66666667  0.41666667  1
  Co  Co  1  0.33333333  0.66666667  0.75000000  1
  Co  Co  1  0.66666667  0.00000000  0.08333333  1
  Co  Co  1  0.66666667  0.00000000  0.41666667  1
  Co  Co  1  0.66666667  0.00000000  0.75000000  1
  Co  Co  1  0.66666667  0.33333333  0.08333333  1
  Co  Co  1  0.66666667  0.33333333  0.41666667  1
  Co  Co  1  0.66666667  0.33333333  0.75000000  1
  Co  Co  1  0.66666667  0.66666667  0.08333333  1
  Co  Co  1  0.66666667  0.66666667  0.41666667  1
  Co  Co  1  0.66666667  0.66666667  0.75000000  1
  Co  Co  1  0.16666667  0.16666667  0.25000000  1
  Co  Co  1  0.16666667  0.16666667  0.58333333  1
  Co  Co  1  0.16666667  0.16666667  0.91666667  1
  Co  Co  1  0.16666667  0.50000000  0.25000000  1
  Co  Co  1  0.16666667  0.50000000  0.58333333  1
  Co  Co  1  0.16666667  0.50000000  0.91666667  1
  Co  Co  1  0.16666667  0.83333333  0.25000000  1
  Co  Co  1  0.16666667  0.83333333  0.58333333  1
  Co  Co  1  0.16666667  0.83333333  0.91666667  1
  Co  Co  1  0.50000000  0.16666667  0.25000000  1
  Co  Co  1  0.50000000  0.16666667  0.58333333  1
  Co  Co  1  0.50000000  0.16666667  0.91666667  1
  Co  Co  1  0.50000000  0.50000000  0.25000000  1
  Co  Co  1  0.50000000  0.50000000  0.58333333  1
  Co  Co  1  0.50000000  0.50000000  0.91666667  1
  Co  Co  1  0.50000000  0.83333333  0.25000000  1
  Co  Co  1  0.50000000  0.83333333  0.58333333  1
  Co  Co  1  0.50000000  0.83333333  0.91666667  1
  Co  Co  1  0.83333333  0.16666667  0.25000000  1
  Co  Co  1  0.83333333  0.16666667  0.58333333  1
  Co  Co  1  0.83333333  0.16666667  0.91666667  1
  Co  Co  1  0.83333333  0.50000000  0.25000000  1
  Co  Co  1  0.83333333  0.50000000  0.58333333  1
  Co  Co  1  0.83333333  0.50000000  0.91666667  1
  Co  Co  1  0.83333333  0.83333333  0.25000000  1
  Co  Co  1  0.83333333  0.83333333  0.58333333  1
  Co  Co  1  0.83333333  0.83333333  0.91666667  1
  Co  Co  1  0.00000000  0.00000000  0.25000000  1
  Co  Co  1  0.00000000  0.00000000  0.58333333  1
  Co  Co  1  0.00000000  0.00000000  0.91666667  1
  Co  Co  1  0.00000000  0.33333333  0.25000000  1
  Co  Co  1  0.00000000  0.33333333  0.58333333  1
  Co  Co  1  0.00000000  0.33333333  0.91666667  1
  Co  Co  1  0.00000000  0.66666667  0.25000000  1
  Co  Co  1  0.00000000  0.66666667  0.58333333  1
  Co  Co  1  0.00000000  0.66666667  0.91666667  1
  Co  Co  1  0.33333333  0.00000000  0.25000000  1
  Co  Co  1  0.33333333  0.00000000  0.58333333  1
  Co  Co  1  0.33333333  0.00000000  0.91666667  1
  Co  Co  1  0.33333333  0.33333333  0.25000000  1
  Co  Co  1  0.33333333  0.33333333  0.58333333  1
  Co  Co  1  0.33333333  0.33333333  0.91666667  1
  Co  Co  1  0.33333333  0.66666667  0.25000000  1
  Co  Co  1  0.33333333  0.66666667  0.58333333  1
  Co  Co  1  0.33333333  0.66666667  0.91666667  1
  Co  Co  1  0.66666667  0.00000000  0.25000000  1
  Co  Co  1  0.66666667  0.00000000  0.58333333  1
  Co  Co  1  0.66666667  0.00000000  0.91666667  1
  Co  Co  1  0.66666667  0.33333333  0.25000000  1
  Co  Co  1  0.66666667  0.33333333  0.58333333  1
  Co  Co  1  0.66666667  0.33333333  0.91666667  1
  Co  Co  1  0.66666667  0.66666667  0.25000000  1
  Co  Co  1  0.66666667  0.66666667  0.58333333  1
  Co  Co  1  0.66666667  0.66666667  0.91666667  1
  Co  Co  1  0.16666667  0.16666667  0.08333333  1
  Co  Co  1  0.16666667  0.16666667  0.41666667  1
  Co  Co  1  0.16666667  0.16666667  0.75000000  1
  Co  Co  1  0.16666667  0.50000000  0.08333333  1
  Co  Co  1  0.16666667  0.50000000  0.41666667  1
  Co  Co  1  0.16666667  0.50000000  0.75000000  1
  Co  Co  1  0.16666667  0.83333333  0.08333333  1
  Co  Co  1  0.16666667  0.83333333  0.41666667  1
  Co  Co  1  0.16666667  0.83333333  0.75000000  1
  Co  Co  1  0.50000000  0.16666667  0.08333333  1
  Co  Co  1  0.50000000  0.16666667  0.41666667  1
  Co  Co  1  0.50000000  0.16666667  0.75000000  1
  Co  Co  1  0.50000000  0.50000000  0.08333333  1
  Co  Co  1  0.50000000  0.50000000  0.41666667  1
  Co  Co  1  0.50000000  0.50000000  0.75000000  1
  Co  Co  1  0.50000000  0.83333333  0.08333333  1
  Co  Co  1  0.50000000  0.83333333  0.41666667  1
  Co  Co  1  0.50000000  0.83333333  0.75000000  1
  Co  Co  1  0.83333333  0.16666667  0.08333333  1
  Co  Co  1  0.83333333  0.16666667  0.41666667  1
  Co  Co  1  0.83333333  0.16666667  0.75000000  1
  Co  Co  1  0.83333333  0.50000000  0.08333333  1
  Co  Co  1  0.83333333  0.50000000  0.41666667  1
  Co  Co  1  0.83333333  0.50000000  0.75000000  1
  Co  Co  1  0.83333333  0.83333333  0.08333333  1
  Co  Co  1  0.83333333  0.83333333  0.41666667  1
  Co  Co  1  0.83333333  0.83333333  0.75000000  1
