LAMMPS (20 Nov 2019)
#---------------------------------------------------------------------#
#---------- Simulation of Co2Ta1 in triclinic (P1) ----#
#-------------------- Writer:: Your Name ----------------------------#
#-------------------- Temperature: 300 Kelvin -----------------------#
#---------------------------------------------------------------------#

#---------------------Define initial value
variable              Temperature equal 300     # 300 K
variable              Pressure    equal 1.01325 # 1.01325 bar
variable              Timestep    equal 0.001   # 0.001 ps=1 fs::Ref[1]

#-----------------------------------------------------------#
#----------------------Initialization-----------------------#
#-----------------------------------------------------------#

#----------------------Define units, atom_style, dimension and boundary
echo                   both
units                  metal
dimension              3
boundary               p p p
atom_style             full

#----------------------Define neighbor Algorithm and neighbor list
neighbor               2.0 bin
neigh_modify           delay 0 every 1 check yes
read_data              Co2Ta(C36).data
  orthogonal box = (-0.42101 -0.42101 -0.7285) to (18.679 18.679 61.2715)
  reading atoms ...
  1536 atoms
  scanning bonds ...
  reading bonds ...
  1584 bonds

#----------------------Define groups for simulation
group                  Co  type 1
1024 atoms in group Co
group                  Ta  type 2
512 atoms in group Ta

#-----------------------------------------------------------------------------------#
#----------------------Setup interaction potentials between ions--------------------#
#-----------------------------------------------------------------------------------#

pair_style             meam
pair_coeff             * * library.meam Co Ta Ta_Co.meam Co Ta

#--------------------------------------------------------------------------------------#
#----Setting velocity, thermostep, thermo_style, timestep and other necessary setup----#
#--------------------------------------------------------------------------------------#
#---------------------Define thermo_style order to chose thermodynamic variable for save
thermo_style          custom   step  temp   press   ke  pe  etotal

#---------------------Define simulation time step
timestep              0.001

#-----------------------------------------#
#-------- Minimization protocols ---------#
#-----------------------------------------#
dump                   Min all atom 100 CoTa_min.atom
min_style              cg
thermo 50  # Print every step during minimization
minimize               1e-25 1e-25 10000 10000
  update every 1 steps, delay 0 steps, check yes
Step Temp Press KinEng PotEng TotEng
0            0   -59530.439            0   -5748.0772   -5748.0772
Loop time of 3.22916 on 1 procs for 112 steps with 1536 atoms

Minimization stats:
  Stopping criterion = linesearch alpha is zero
  Energy initial, next-to-last, final =
  Force two-norm initial, final = 90.6564 31.3367
  Force max component initial, final = 4.94307 9.35093
  Final line search alpha, max atom move = 8.29295e-12 7.75468e-11
  Iterations, force evaluations = 112 189

undump                 Min
reset_timestep	       0

#-------------------------------------------------------------#
#---- Dynamic stage: Calculation enthalpy in NVT ensemble ----#
#-------------------------------------------------------------#

fix                   NVT_Equilibrium_Final all nvt temp 300 300 0.1

#---------------------Save the trajectories with dump command in Equilibrium stage
dump                  Equilibrium.NVT.Final all atom 100 Equilibrium.NVT.Final.atom

#-----------------------------------------------------#
#-------------- Calculation enthalpy -----------------#
#-----------------------------------------------------#

#---------------------Calculation potentials energy per atoms
compute               Potentials_energy_per_atoms_vector all pe/atom
variable              PD atom c_Potentials_energy_per_atoms_vector            # PD= Potentials_energy_per_atoms_vector for dump
compute               Potentials_energy all reduce sum c_Potentials_energy_per_atoms_vector
variable              N equal "count(all)"
variable              N1 equal count(Co)
variable              N2 equal count(Ta)
variable              n equal 2        # Co_nTa_m
variable              m equal 1
compute               ECo Co pe/atom
compute               ETa Ta pe/atom
compute               E1 Co reduce sum c_ECo
compute               E2 Ta reduce sum c_ETa
variable              Potentials_energy_per_atoms_scaller equal "c_Potentials_energy/v_N"
variable              Totenergy equal etotal                               #Kinetic+Potentials

#---------------------Calculation Temperature
compute               TEMPERATURE all   temp
variable              TEMPERATURE equal "c_TEMPERATURE"

#---------------------Calculation formation Energy and heat of formation
variable              lengtha equal "lx/4"
variable              lengthc equal "lz/4"
variable              EcCo equal -4.41  	 #Cohesive energy of Co
variable              EcTa equal -8.09           #Cohesive energy of Ta
variable              Etot equal v_Totenergy/v_N
variable              formation_energy equal -(v_Etot-v_n*v_EcCo-v_m*v_EcTa)/(22*(v_n+v_m))
variable              heat_formation equal (v_Etot*v_N-v_N1*c_E1-v_N2*c_E2)/(v_N)
thermo_style          custom step temp press etotal v_Etot c_E1 c_E2 v_formation_energy v_heat_formation v_lengtha v_lengthc
thermo 500  # Print every step during dynamics

#---------------------Dynamic run
run                   10000 # 1 ps
Step Temp Press TotEng v_Etot c_E1 c_E2 v_formation_energy v_heat_formation v_lengtha v_lengthc
0            0   -33152.116   -7342.7571   -4.7804408   -3426.3536   -3916.4035   -0.1837812    3584.9231        4.775         15.5
Averages over the last 11 of 21 rows, steps 5000 to 10000:
Temp Press TotEng v_Etot c_E1 c_E2 v_formation_energy v_heat_formation v_lengtha v_lengthc
339.617 -18208.3 -7970.45 -5.1891 -3743.71 -4294.13 -0.177589 3921.99 4.775 15.5
Loop time of 190.119 on 1 procs for 10000 steps with 1536 atoms

#--------------------Print flag order to show simulation is successful
print                "SIMULATION IS SUCCESSFUL DONE"
SIMULATION IS SUCCESSFUL DONE
