# generated using pymatgen
data_TaCo2
_symmetry_space_group_name_H-M   'P 1'
_cell_length_a   4.76000000
_cell_length_b   4.76000000
_cell_length_c   15.50000000
_cell_angle_alpha   90.00000000
_cell_angle_beta   90.00000000
_cell_angle_gamma   90.00000000
_symmetry_Int_Tables_number   1
_chemical_formula_structural   TaCo2
_chemical_formula_sum   'Ta8 Co16'
_cell_volume   351.19280000
_cell_formula_units_Z   8
loop_
 _symmetry_equiv_pos_site_id
 _symmetry_equiv_pos_as_xyz
  1  'x, y, z'
loop_
 _atom_site_type_symbol
 _atom_site_label
 _atom_site_symmetry_multiplicity
 _atom_site_fract_x
 _atom_site_fract_y
 _atom_site_fract_z
 _atom_site_occupancy
  Ta  Ta1  1  0.00000000  0.00000000  0.09400000  1
  Ta  Ta1  1  0.00000000  0.00000000  0.59400000  1
  Ta  Ta1  1  0.00000000  0.00000000  0.40600000  1
  Ta  Ta1  1  0.00000000  0.00000000  0.90600000  1
  Ta  Ta2  1  0.33333333  0.66666667  0.84420000  1
  Ta  Ta2  1  0.66666667  0.33333333  0.34420000  1
  Ta  Ta2  1  0.33333333  0.66666667  0.65580000  1
  Ta  Ta2  1  0.66666667  0.33333333  0.15580000  1
  Co  Co1  1  0.33333333  0.66666667  0.12514000  1
  Co  Co1  1  0.66666667  0.33333333  0.62514000  1
  Co  Co1  1  0.33333333  0.66666667  0.37486000  1
  Co  Co1  1  0.66666667  0.33333333  0.87486000  1
  Co  Co3  1  0.16429000  0.32858000  0.25000000  1
  Co  Co3  1  0.83571000  0.16429000  0.75000000  1
  Co  Co3  1  0.67142000  0.83571000  0.25000000  1
  Co  Co3  1  0.83571000  0.67142000  0.75000000  1
  Co  Co3  1  0.16429000  0.83571000  0.25000000  1
  Co  Co3  1  0.32858000  0.16429000  0.75000000  1
  Co  Co2  1  0.50000000  0.00000000  0.00000000  1
  Co  Co2  1  0.50000000  0.50000000  0.50000000  1
  Co  Co2  1  0.00000000  0.50000000  0.00000000  1
  Co  Co2  1  0.50000000  0.00000000  0.50000000  1
  Co  Co2  1  0.50000000  0.50000000  0.00000000  1
  Co  Co2  1  0.00000000  0.50000000  0.50000000  1
