LAMMPS (20 Nov 2019)
#---------------------------------------------------------------------#
#---------- Simulation of Ta1Co2 in triclinic (P1) ----#
#-------------------- Writer:: Your Name ----------------------------#
#-------------------- Temperature: 300 Kelvin -----------------------#
#---------------------------------------------------------------------#

#---------------------Define initial value
variable              Temperature equal 300     # 300 K
variable              Pressure    equal 1.01325 # 1.01325 bar
variable              Timestep    equal 0.001   # 0.001 ps=1 fs::Ref[1]

#-----------------------------------------------------------#
#----------------------Initialization-----------------------#
#-----------------------------------------------------------#

#----------------------Define units, atom_style, dimension and boundary
echo                   both
units                  metal
dimension              3
boundary               p p p
atom_style             full

#----------------------Define neighbor Algorithm and neighbor list
neighbor               2.0 bin
neigh_modify           delay 0 every 1 check yes
read_data              CoTa2.data
  orthogonal box = (-0.0275 -0.0275 -0.042) to (18.3725 18.3725 14.958)
  reading atoms ...
  402 atoms

#----------------------Define groups for simulation
group                  Ta  type 1
150 atoms in group Ta
group                  Co  type 2
252 atoms in group Co

#-----------------------------------------------------------------------------------#
#----------------------Setup interaction potentials between ions--------------------#
#-----------------------------------------------------------------------------------#

pair_style             meam
pair_coeff             * * library.meam Ta Co CoTa.meam Ta Co

#--------------------------------------------------------------------------------------#
#----Setting velocity, thermostep, thermo_style, timestep and other necessary setup----#
#--------------------------------------------------------------------------------------#
#---------------------Define thermo_style order to chose thermodynamic variable for save
thermo_style          custom   step  temp   press   ke  pe  etotal

#---------------------Define simulation time step
timestep              0.001

#-----------------------------------------#
#-------- Minimization protocols ---------#
#-----------------------------------------#
dump                   Min all atom 100 TaCo_min.atom
min_style              cg
thermo 1  # Print every step during minimization
minimize               1e-25 1e-25 10000 10000
  update every 1 steps, delay 0 steps, check yes
Step Temp Press KinEng PotEng TotEng
0            0    1447940.4            0    34510.512    34510.512
Loop time of 19.3737 on 1 procs for 975 steps with 402 atoms

Minimization stats:
  Stopping criterion = energy tolerance
  Energy initial, next-to-last, final =
  Force two-norm initial, final = 12993.1 2.56525e-06
  Force max component initial, final = 1112.53 6.29699e-07
  Final line search alpha, max atom move = 1 6.29699e-07
  Iterations, force evaluations = 975 1850

undump                 Min
reset_timestep	       0

#-------------------------------------------------------------#
#---- Dynamic stage: Calculation enthalpy in NVT ensemble ----#
#-------------------------------------------------------------#

fix                   NVT_Equilibrium_Final all nvt temp 300 300 0.1

#---------------------Save the trajectories with dump command in Equilibrium stage
dump                  Equilibrium.NVT.Final all atom 100 Equilibrium.NVT.Final.atom

#-----------------------------------------------------#
#-------------- Calculation enthalpy -----------------#
#-----------------------------------------------------#

#---------------------Calculation potentials energy per atoms
compute               Potentials_energy_per_atoms_vector all pe/atom
variable              PD atom c_Potentials_energy_per_atoms_vector            # PD= Potentials_energy_per_atoms_vector for dump
compute               Potentials_energy all reduce sum c_Potentials_energy_per_atoms_vector
variable              N equal "count(all)"
variable              N1 equal count(Ta)
variable              N2 equal count(Co)
variable              n equal 1        # Ta_nCo_m
variable              m equal 2
compute               ETa Ta pe/atom
compute               ECo Co pe/atom
compute               E1 Ta reduce sum c_ETa
compute               E2 Co reduce sum c_ECo
variable              Potentials_energy_per_atoms_scaller equal "c_Potentials_energy/v_N"
variable              Totenergy equal etotal                               #Kinetic+Potentials

#---------------------Calculation Temperature
compute               TEMPERATURE all   temp
variable              TEMPERATURE equal "c_TEMPERATURE"

#---------------------Calculation formation Energy and heat of formation
variable              lengtha equal "lx/3"
variable              lengthc equal "lz/3"
variable              EcTa equal -3.7  	 #Cohesive energy of Ta
variable              EcCo equal -8.1           #Cohesive energy of Co
variable              Etot equal v_Totenergy/v_N
variable              formation_energy equal -(v_Etot-v_n*v_EcTa-v_m*v_EcCo)/(22*(v_n+v_m))
variable              heat_formation equal (v_Etot*v_N-v_N1*c_E1-v_N2*c_E2)/(v_N)
thermo_style          custom step temp press etotal v_Etot c_E1 c_E2 v_formation_energy v_heat_formation v_lengtha v_lengthc
thermo 1  # Print every step during dynamics

#---------------------Dynamic run
run                   10000 # 1 ps
Step Temp Press TotEng v_Etot c_E1 c_E2 v_formation_energy v_heat_formation v_lengtha v_lengthc
0            0    1313080.6   -1779.2476    -4.425989   -271.82679   -1507.4208  -0.23445471    1041.9523    6.1333333            5
Averages over the last 5001 of 10001 rows, steps 5000 to 10000:
Temp Press TotEng v_Etot c_E1 c_E2 v_formation_energy v_heat_formation v_lengtha v_lengthc
245.056 1.31891e+06 -1755.74 -4.36751 -268.386 -1500.06 -0.235341 1036.11 6.13333 5
Loop time of 125.46 on 1 procs for 10000 steps with 402 atoms

#--------------------Print flag order to show simulation is successful
print                "SIMULATION IS SUCCESSFUL DONE"
SIMULATION IS SUCCESSFUL DONE
