LAMMPS (20 Nov 2019)
#---------------------------------------------------------------------#
#---------- Simulation of Co1Ta2 in triclinic (P1) ----#
#-------------------- Writer:: Your Name ----------------------------#
#-------------------- Temperature: 300 Kelvin -----------------------#
#---------------------------------------------------------------------#

#---------------------Define initial value
variable              Temperature equal 300     # 300 K
variable              Pressure    equal 1.01325 # 1.01325 bar
variable              Timestep    equal 0.001   # 0.001 ps=1 fs::Ref[1]

#-----------------------------------------------------------#
#----------------------Initialization-----------------------#
#-----------------------------------------------------------#

#----------------------Define units, atom_style, dimension and boundary
echo                   both
units                  metal
dimension              3
boundary               p p p
atom_style             full

#----------------------Define neighbor Algorithm and neighbor list
neighbor               2.0 bin
neigh_modify           delay 0 every 1 check yes
read_data              CoTa2.data
  orthogonal box = (-6.61534 -6.61534 -5.60125) to (17.8847 17.8847 14.2988)
  reading atoms ...
  96 atoms

#----------------------Define groups for simulation
group                  Co  type 1
32 atoms in group Co
group                  Ta  type 2
64 atoms in group Ta

#-----------------------------------------------------------------------------------#
#----------------------Setup interaction potentials between ions--------------------#
#-----------------------------------------------------------------------------------#

pair_style             meam
pair_coeff             * * library.meam Co Ta Ta_Co.meam Co Ta

#--------------------------------------------------------------------------------------#
#----Setting velocity, thermostep, thermo_style, timestep and other necessary setup----#
#--------------------------------------------------------------------------------------#
#---------------------Define thermo_style order to chose thermodynamic variable for save
thermo_style          custom   step  temp   press   ke  pe  etotal

#---------------------Define simulation time step
timestep              0.001

#-----------------------------------------#
#-------- Minimization protocols ---------#
#-----------------------------------------#
dump                   Min all atom 100 CoTa_min.atom
min_style              cg
thermo 50  # Print every step during minimization
minimize               1e-25 1e-25 10000 10000
  update every 1 steps, delay 0 steps, check yes
Step Temp Press KinEng PotEng TotEng
0            0    32647.791            0   -510.55789   -510.55789
Loop time of 0.122442 on 1 procs for 123 steps with 96 atoms

Minimization stats:
  Stopping criterion = energy tolerance
  Energy initial, next-to-last, final =
  Force two-norm initial, final = 22.007 1.20426e-06
  Force max component initial, final = 3.73232 1.97943e-07
  Final line search alpha, max atom move = 1 1.97943e-07
  Iterations, force evaluations = 123 215

undump                 Min
reset_timestep	       0

#-------------------------------------------------------------#
#---- Dynamic stage: Calculation enthalpy in NVT ensemble ----#
#-------------------------------------------------------------#

fix                   NVT_Equilibrium_Final all nvt temp 300 300 0.1

#---------------------Save the trajectories with dump command in Equilibrium stage
dump                  Equilibrium.NVT.Final all atom 100 Equilibrium.NVT.Final.atom

#-----------------------------------------------------#
#-------------- Calculation enthalpy -----------------#
#-----------------------------------------------------#

#---------------------Calculation potentials energy per atoms
compute               Potentials_energy_per_atoms_vector all pe/atom
variable              PD atom c_Potentials_energy_per_atoms_vector            # PD= Potentials_energy_per_atoms_vector for dump
compute               Potentials_energy all reduce sum c_Potentials_energy_per_atoms_vector
variable              N equal "count(all)"
variable              N1 equal count(Co)
variable              N2 equal count(Ta)
variable              n equal 1        # Co_nTa_m
variable              m equal 2
compute               ECo Co pe/atom
compute               ETa Ta pe/atom
compute               E1 Co reduce sum c_ECo
compute               E2 Ta reduce sum c_ETa
variable              Potentials_energy_per_atoms_scaller equal "c_Potentials_energy/v_N"
variable              Totenergy equal etotal                               #Kinetic+Potentials

#---------------------Calculation Temperature
compute               TEMPERATURE all   temp
variable              TEMPERATURE equal "c_TEMPERATURE"

#---------------------Calculation formation Energy and heat of formation
variable              lengtha equal "lx/2"
variable              lengthc equal "lz/2"
variable              EcCo equal -4.41  	 #Cohesive energy of Co
variable              EcTa equal -8.09           #Cohesive energy of Ta
variable              Etot equal v_Totenergy/v_N
variable              formation_energy equal -(v_Etot-v_n*v_EcCo-v_m*v_EcTa)/(22*(v_n+v_m))
variable              heat_formation equal (v_Etot*v_N-v_N1*c_E1-v_N2*c_E2)/(v_N)
thermo_style          custom step temp press etotal v_Etot c_E1 c_E2 v_formation_energy v_heat_formation v_lengtha v_lengthc
thermo 500  # Print every step during dynamics

#---------------------Dynamic run
run                   10000 # 1 ps
Step Temp Press TotEng v_Etot c_E1 c_E2 v_formation_energy v_heat_formation v_lengtha v_lengthc
0            0 5.0279866e-05   -539.17265   -5.6163817   -101.59889   -437.57376    -0.226873    319.96575        12.25         9.95
Averages over the last 11 of 21 rows, steps 5000 to 10000:
Temp Press TotEng v_Etot c_E1 c_E2 v_formation_energy v_heat_formation v_lengtha v_lengthc
306.209 -234.929 -533.17 -5.55385 -102.984 -433.946 -0.22782 318.071 12.25 9.95
Loop time of 5.38524 on 1 procs for 10000 steps with 96 atoms

#--------------------Print flag order to show simulation is successful
print                "SIMULATION IS SUCCESSFUL DONE"
SIMULATION IS SUCCESSFUL DONE
