# generated using pymatgen
data_TaCo2
_symmetry_space_group_name_H-M   'P 1'
_cell_length_a   9.68000000
_cell_length_b   9.68000000
_cell_length_c   15.72000000
_cell_angle_alpha   90.00000000
_cell_angle_beta   90.00000000
_cell_angle_gamma   90.00000000
_symmetry_Int_Tables_number   1
_chemical_formula_structural   TaCo2
_chemical_formula_sum   'Ta32 Co64'
_cell_volume   1473.00172800
_cell_formula_units_Z   32
loop_
 _symmetry_equiv_pos_site_id
 _symmetry_equiv_pos_as_xyz
  1  'x, y, z'
loop_
 _atom_site_type_symbol
 _atom_site_label
 _atom_site_symmetry_multiplicity
 _atom_site_fract_x
 _atom_site_fract_y
 _atom_site_fract_z
 _atom_site_occupancy
  Ta  Ta1  1  0.16666667  0.33333333  0.03340250  1
  Ta  Ta1  1  0.16666667  0.33333333  0.53340250  1
  Ta  Ta1  1  0.16666667  0.83333333  0.03340250  1
  Ta  Ta1  1  0.16666667  0.83333333  0.53340250  1
  Ta  Ta1  1  0.66666667  0.33333333  0.03340250  1
  Ta  Ta1  1  0.66666667  0.33333333  0.53340250  1
  Ta  Ta1  1  0.66666667  0.83333333  0.03340250  1
  Ta  Ta1  1  0.66666667  0.83333333  0.53340250  1
  Ta  Ta1  1  0.33333333  0.16666667  0.46659750  1
  Ta  Ta1  1  0.33333333  0.16666667  0.96659750  1
  Ta  Ta1  1  0.33333333  0.66666667  0.46659750  1
  Ta  Ta1  1  0.33333333  0.66666667  0.96659750  1
  Ta  Ta1  1  0.83333333  0.16666667  0.46659750  1
  Ta  Ta1  1  0.83333333  0.16666667  0.96659750  1
  Ta  Ta1  1  0.83333333  0.66666667  0.46659750  1
  Ta  Ta1  1  0.83333333  0.66666667  0.96659750  1
  Ta  Ta1  1  0.33333333  0.16666667  0.28340250  1
  Ta  Ta1  1  0.33333333  0.16666667  0.78340250  1
  Ta  Ta1  1  0.33333333  0.66666667  0.28340250  1
  Ta  Ta1  1  0.33333333  0.66666667  0.78340250  1
  Ta  Ta1  1  0.83333333  0.16666667  0.28340250  1
  Ta  Ta1  1  0.83333333  0.16666667  0.78340250  1
  Ta  Ta1  1  0.83333333  0.66666667  0.28340250  1
  Ta  Ta1  1  0.83333333  0.66666667  0.78340250  1
  Ta  Ta1  1  0.16666667  0.33333333  0.21659750  1
  Ta  Ta1  1  0.16666667  0.33333333  0.71659750  1
  Ta  Ta1  1  0.16666667  0.83333333  0.21659750  1
  Ta  Ta1  1  0.16666667  0.83333333  0.71659750  1
  Ta  Ta1  1  0.66666667  0.33333333  0.21659750  1
  Ta  Ta1  1  0.66666667  0.33333333  0.71659750  1
  Ta  Ta1  1  0.66666667  0.83333333  0.21659750  1
  Ta  Ta1  1  0.66666667  0.83333333  0.71659750  1
  Co  Co1  1  0.00000000  0.00000000  0.00000000  1
  Co  Co1  1  0.00000000  0.00000000  0.50000000  1
  Co  Co1  1  0.00000000  0.50000000  0.00000000  1
  Co  Co1  1  0.00000000  0.50000000  0.50000000  1
  Co  Co1  1  0.50000000  0.00000000  0.00000000  1
  Co  Co1  1  0.50000000  0.00000000  0.50000000  1
  Co  Co1  1  0.50000000  0.50000000  0.00000000  1
  Co  Co1  1  0.50000000  0.50000000  0.50000000  1
  Co  Co1  1  0.00000000  0.00000000  0.25000000  1
  Co  Co1  1  0.00000000  0.00000000  0.75000000  1
  Co  Co1  1  0.00000000  0.50000000  0.25000000  1
  Co  Co1  1  0.00000000  0.50000000  0.75000000  1
  Co  Co1  1  0.50000000  0.00000000  0.25000000  1
  Co  Co1  1  0.50000000  0.00000000  0.75000000  1
  Co  Co1  1  0.50000000  0.50000000  0.25000000  1
  Co  Co1  1  0.50000000  0.50000000  0.75000000  1
  Co  Co2  1  0.16988400  0.08494200  0.12500000  1
  Co  Co2  1  0.16988400  0.08494200  0.62500000  1
  Co  Co2  1  0.16988400  0.58494200  0.12500000  1
  Co  Co2  1  0.16988400  0.58494200  0.62500000  1
  Co  Co2  1  0.66988400  0.08494200  0.12500000  1
  Co  Co2  1  0.66988400  0.08494200  0.62500000  1
  Co  Co2  1  0.66988400  0.58494200  0.12500000  1
  Co  Co2  1  0.66988400  0.58494200  0.62500000  1
  Co  Co2  1  0.33011600  0.41505800  0.37500000  1
  Co  Co2  1  0.33011600  0.41505800  0.87500000  1
  Co  Co2  1  0.33011600  0.91505800  0.37500000  1
  Co  Co2  1  0.33011600  0.91505800  0.87500000  1
  Co  Co2  1  0.83011600  0.41505800  0.37500000  1
  Co  Co2  1  0.83011600  0.41505800  0.87500000  1
  Co  Co2  1  0.83011600  0.91505800  0.37500000  1
  Co  Co2  1  0.83011600  0.91505800  0.87500000  1
  Co  Co2  1  0.41505800  0.08494200  0.12500000  1
  Co  Co2  1  0.41505800  0.08494200  0.62500000  1
  Co  Co2  1  0.41505800  0.58494200  0.12500000  1
  Co  Co2  1  0.41505800  0.58494200  0.62500000  1
  Co  Co2  1  0.91505800  0.08494200  0.12500000  1
  Co  Co2  1  0.91505800  0.08494200  0.62500000  1
  Co  Co2  1  0.91505800  0.58494200  0.12500000  1
  Co  Co2  1  0.91505800  0.58494200  0.62500000  1
  Co  Co2  1  0.08494200  0.41505800  0.37500000  1
  Co  Co2  1  0.08494200  0.41505800  0.87500000  1
  Co  Co2  1  0.08494200  0.91505800  0.37500000  1
  Co  Co2  1  0.08494200  0.91505800  0.87500000  1
  Co  Co2  1  0.58494200  0.41505800  0.37500000  1
  Co  Co2  1  0.58494200  0.41505800  0.87500000  1
  Co  Co2  1  0.58494200  0.91505800  0.37500000  1
  Co  Co2  1  0.58494200  0.91505800  0.87500000  1
  Co  Co2  1  0.41505800  0.33011600  0.12500000  1
  Co  Co2  1  0.41505800  0.33011600  0.62500000  1
  Co  Co2  1  0.41505800  0.83011600  0.12500000  1
  Co  Co2  1  0.41505800  0.83011600  0.62500000  1
  Co  Co2  1  0.91505800  0.33011600  0.12500000  1
  Co  Co2  1  0.91505800  0.33011600  0.62500000  1
  Co  Co2  1  0.91505800  0.83011600  0.12500000  1
  Co  Co2  1  0.91505800  0.83011600  0.62500000  1
  Co  Co2  1  0.08494200  0.16988400  0.37500000  1
  Co  Co2  1  0.08494200  0.16988400  0.87500000  1
  Co  Co2  1  0.08494200  0.66988400  0.37500000  1
  Co  Co2  1  0.08494200  0.66988400  0.87500000  1
  Co  Co2  1  0.58494200  0.16988400  0.37500000  1
  Co  Co2  1  0.58494200  0.16988400  0.87500000  1
  Co  Co2  1  0.58494200  0.66988400  0.37500000  1
  Co  Co2  1  0.58494200  0.66988400  0.87500000  1
