# generated using pymatgen
data_Ta3Co
_symmetry_space_group_name_H-M   'P 1'
_cell_length_a   12.09000000
_cell_length_b   12.09000000
_cell_length_c   12.09000000
_cell_angle_alpha   90.00000000
_cell_angle_beta   90.00000000
_cell_angle_gamma   90.00000000
_symmetry_Int_Tables_number   1
_chemical_formula_structural   Ta3Co
_chemical_formula_sum   'Ta162 Co54'
_cell_volume   1767.17232900
_cell_formula_units_Z   54
loop_
 _symmetry_equiv_pos_site_id
 _symmetry_equiv_pos_as_xyz
  1  'x, y, z'
loop_
 _atom_site_type_symbol
 _atom_site_label
 _atom_site_symmetry_multiplicity
 _atom_site_fract_x
 _atom_site_fract_y
 _atom_site_fract_z
 _atom_site_occupancy
  Ta  Ta1  1  0.27766667  0.22200000  0.08333333  1
  Ta  Ta1  1  0.27766667  0.22200000  0.41666667  1
  Ta  Ta1  1  0.27766667  0.22200000  0.75000000  1
  Ta  Ta1  1  0.27766667  0.55533333  0.08333333  1
  Ta  Ta1  1  0.27766667  0.55533333  0.41666667  1
  Ta  Ta1  1  0.27766667  0.55533333  0.75000000  1
  Ta  Ta1  1  0.27766667  0.88866667  0.08333333  1
  Ta  Ta1  1  0.27766667  0.88866667  0.41666667  1
  Ta  Ta1  1  0.27766667  0.88866667  0.75000000  1
  Ta  Ta1  1  0.61100000  0.22200000  0.08333333  1
  Ta  Ta1  1  0.61100000  0.22200000  0.41666667  1
  Ta  Ta1  1  0.61100000  0.22200000  0.75000000  1
  Ta  Ta1  1  0.61100000  0.55533333  0.08333333  1
  Ta  Ta1  1  0.61100000  0.55533333  0.41666667  1
  Ta  Ta1  1  0.61100000  0.55533333  0.75000000  1
  Ta  Ta1  1  0.61100000  0.88866667  0.08333333  1
  Ta  Ta1  1  0.61100000  0.88866667  0.41666667  1
  Ta  Ta1  1  0.61100000  0.88866667  0.75000000  1
  Ta  Ta1  1  0.94433333  0.22200000  0.08333333  1
  Ta  Ta1  1  0.94433333  0.22200000  0.41666667  1
  Ta  Ta1  1  0.94433333  0.22200000  0.75000000  1
  Ta  Ta1  1  0.94433333  0.55533333  0.08333333  1
  Ta  Ta1  1  0.94433333  0.55533333  0.41666667  1
  Ta  Ta1  1  0.94433333  0.55533333  0.75000000  1
  Ta  Ta1  1  0.94433333  0.88866667  0.08333333  1
  Ta  Ta1  1  0.94433333  0.88866667  0.41666667  1
  Ta  Ta1  1  0.94433333  0.88866667  0.75000000  1
  Ta  Ta1  1  0.05566667  0.27766667  0.25000000  1
  Ta  Ta1  1  0.05566667  0.27766667  0.58333333  1
  Ta  Ta1  1  0.05566667  0.27766667  0.91666667  1
  Ta  Ta1  1  0.05566667  0.61100000  0.25000000  1
  Ta  Ta1  1  0.05566667  0.61100000  0.58333333  1
  Ta  Ta1  1  0.05566667  0.61100000  0.91666667  1
  Ta  Ta1  1  0.05566667  0.94433333  0.25000000  1
  Ta  Ta1  1  0.05566667  0.94433333  0.58333333  1
  Ta  Ta1  1  0.05566667  0.94433333  0.91666667  1
  Ta  Ta1  1  0.38900000  0.27766667  0.25000000  1
  Ta  Ta1  1  0.38900000  0.27766667  0.58333333  1
  Ta  Ta1  1  0.38900000  0.27766667  0.91666667  1
  Ta  Ta1  1  0.38900000  0.61100000  0.25000000  1
  Ta  Ta1  1  0.38900000  0.61100000  0.58333333  1
  Ta  Ta1  1  0.38900000  0.61100000  0.91666667  1
  Ta  Ta1  1  0.38900000  0.94433333  0.25000000  1
  Ta  Ta1  1  0.38900000  0.94433333  0.58333333  1
  Ta  Ta1  1  0.38900000  0.94433333  0.91666667  1
  Ta  Ta1  1  0.72233333  0.27766667  0.25000000  1
  Ta  Ta1  1  0.72233333  0.27766667  0.58333333  1
  Ta  Ta1  1  0.72233333  0.27766667  0.91666667  1
  Ta  Ta1  1  0.72233333  0.61100000  0.25000000  1
  Ta  Ta1  1  0.72233333  0.61100000  0.58333333  1
  Ta  Ta1  1  0.72233333  0.61100000  0.91666667  1
  Ta  Ta1  1  0.72233333  0.94433333  0.25000000  1
  Ta  Ta1  1  0.72233333  0.94433333  0.58333333  1
  Ta  Ta1  1  0.72233333  0.94433333  0.91666667  1
  Ta  Ta1  1  0.11133333  0.05566667  0.08333333  1
  Ta  Ta1  1  0.11133333  0.05566667  0.41666667  1
  Ta  Ta1  1  0.11133333  0.05566667  0.75000000  1
  Ta  Ta1  1  0.11133333  0.38900000  0.08333333  1
  Ta  Ta1  1  0.11133333  0.38900000  0.41666667  1
  Ta  Ta1  1  0.11133333  0.38900000  0.75000000  1
  Ta  Ta1  1  0.11133333  0.72233333  0.08333333  1
  Ta  Ta1  1  0.11133333  0.72233333  0.41666667  1
  Ta  Ta1  1  0.11133333  0.72233333  0.75000000  1
  Ta  Ta1  1  0.44466667  0.05566667  0.08333333  1
  Ta  Ta1  1  0.44466667  0.05566667  0.41666667  1
  Ta  Ta1  1  0.44466667  0.05566667  0.75000000  1
  Ta  Ta1  1  0.44466667  0.38900000  0.08333333  1
  Ta  Ta1  1  0.44466667  0.38900000  0.41666667  1
  Ta  Ta1  1  0.44466667  0.38900000  0.75000000  1
  Ta  Ta1  1  0.44466667  0.72233333  0.08333333  1
  Ta  Ta1  1  0.44466667  0.72233333  0.41666667  1
  Ta  Ta1  1  0.44466667  0.72233333  0.75000000  1
  Ta  Ta1  1  0.77800000  0.05566667  0.08333333  1
  Ta  Ta1  1  0.77800000  0.05566667  0.41666667  1
  Ta  Ta1  1  0.77800000  0.05566667  0.75000000  1
  Ta  Ta1  1  0.77800000  0.38900000  0.08333333  1
  Ta  Ta1  1  0.77800000  0.38900000  0.41666667  1
  Ta  Ta1  1  0.77800000  0.38900000  0.75000000  1
  Ta  Ta1  1  0.77800000  0.72233333  0.08333333  1
  Ta  Ta1  1  0.77800000  0.72233333  0.41666667  1
  Ta  Ta1  1  0.77800000  0.72233333  0.75000000  1
  Ta  Ta1  1  0.05566667  0.11133333  0.25000000  1
  Ta  Ta1  1  0.05566667  0.11133333  0.58333333  1
  Ta  Ta1  1  0.05566667  0.11133333  0.91666667  1
  Ta  Ta1  1  0.05566667  0.44466667  0.25000000  1
  Ta  Ta1  1  0.05566667  0.44466667  0.58333333  1
  Ta  Ta1  1  0.05566667  0.44466667  0.91666667  1
  Ta  Ta1  1  0.05566667  0.77800000  0.25000000  1
  Ta  Ta1  1  0.05566667  0.77800000  0.58333333  1
  Ta  Ta1  1  0.05566667  0.77800000  0.91666667  1
  Ta  Ta1  1  0.38900000  0.11133333  0.25000000  1
  Ta  Ta1  1  0.38900000  0.11133333  0.58333333  1
  Ta  Ta1  1  0.38900000  0.11133333  0.91666667  1
  Ta  Ta1  1  0.38900000  0.44466667  0.25000000  1
  Ta  Ta1  1  0.38900000  0.44466667  0.58333333  1
  Ta  Ta1  1  0.38900000  0.44466667  0.91666667  1
  Ta  Ta1  1  0.38900000  0.77800000  0.25000000  1
  Ta  Ta1  1  0.38900000  0.77800000  0.58333333  1
  Ta  Ta1  1  0.38900000  0.77800000  0.91666667  1
  Ta  Ta1  1  0.72233333  0.11133333  0.25000000  1
  Ta  Ta1  1  0.72233333  0.11133333  0.58333333  1
  Ta  Ta1  1  0.72233333  0.11133333  0.91666667  1
  Ta  Ta1  1  0.72233333  0.44466667  0.25000000  1
  Ta  Ta1  1  0.72233333  0.44466667  0.58333333  1
  Ta  Ta1  1  0.72233333  0.44466667  0.91666667  1
  Ta  Ta1  1  0.72233333  0.77800000  0.25000000  1
  Ta  Ta1  1  0.72233333  0.77800000  0.58333333  1
  Ta  Ta1  1  0.72233333  0.77800000  0.91666667  1
  Ta  Ta1  1  0.27766667  0.05566667  0.08333333  1
  Ta  Ta1  1  0.27766667  0.05566667  0.41666667  1
  Ta  Ta1  1  0.27766667  0.05566667  0.75000000  1
  Ta  Ta1  1  0.27766667  0.38900000  0.08333333  1
  Ta  Ta1  1  0.27766667  0.38900000  0.41666667  1
  Ta  Ta1  1  0.27766667  0.38900000  0.75000000  1
  Ta  Ta1  1  0.27766667  0.72233333  0.08333333  1
  Ta  Ta1  1  0.27766667  0.72233333  0.41666667  1
  Ta  Ta1  1  0.27766667  0.72233333  0.75000000  1
  Ta  Ta1  1  0.61100000  0.05566667  0.08333333  1
  Ta  Ta1  1  0.61100000  0.05566667  0.41666667  1
  Ta  Ta1  1  0.61100000  0.05566667  0.75000000  1
  Ta  Ta1  1  0.61100000  0.38900000  0.08333333  1
  Ta  Ta1  1  0.61100000  0.38900000  0.41666667  1
  Ta  Ta1  1  0.61100000  0.38900000  0.75000000  1
  Ta  Ta1  1  0.61100000  0.72233333  0.08333333  1
  Ta  Ta1  1  0.61100000  0.72233333  0.41666667  1
  Ta  Ta1  1  0.61100000  0.72233333  0.75000000  1
  Ta  Ta1  1  0.94433333  0.05566667  0.08333333  1
  Ta  Ta1  1  0.94433333  0.05566667  0.41666667  1
  Ta  Ta1  1  0.94433333  0.05566667  0.75000000  1
  Ta  Ta1  1  0.94433333  0.38900000  0.08333333  1
  Ta  Ta1  1  0.94433333  0.38900000  0.41666667  1
  Ta  Ta1  1  0.94433333  0.38900000  0.75000000  1
  Ta  Ta1  1  0.94433333  0.72233333  0.08333333  1
  Ta  Ta1  1  0.94433333  0.72233333  0.41666667  1
  Ta  Ta1  1  0.94433333  0.72233333  0.75000000  1
  Ta  Ta1  1  0.22200000  0.27766667  0.25000000  1
  Ta  Ta1  1  0.22200000  0.27766667  0.58333333  1
  Ta  Ta1  1  0.22200000  0.27766667  0.91666667  1
  Ta  Ta1  1  0.22200000  0.61100000  0.25000000  1
  Ta  Ta1  1  0.22200000  0.61100000  0.58333333  1
  Ta  Ta1  1  0.22200000  0.61100000  0.91666667  1
  Ta  Ta1  1  0.22200000  0.94433333  0.25000000  1
  Ta  Ta1  1  0.22200000  0.94433333  0.58333333  1
  Ta  Ta1  1  0.22200000  0.94433333  0.91666667  1
  Ta  Ta1  1  0.55533333  0.27766667  0.25000000  1
  Ta  Ta1  1  0.55533333  0.27766667  0.58333333  1
  Ta  Ta1  1  0.55533333  0.27766667  0.91666667  1
  Ta  Ta1  1  0.55533333  0.61100000  0.25000000  1
  Ta  Ta1  1  0.55533333  0.61100000  0.58333333  1
  Ta  Ta1  1  0.55533333  0.61100000  0.91666667  1
  Ta  Ta1  1  0.55533333  0.94433333  0.25000000  1
  Ta  Ta1  1  0.55533333  0.94433333  0.58333333  1
  Ta  Ta1  1  0.55533333  0.94433333  0.91666667  1
  Ta  Ta1  1  0.88866667  0.27766667  0.25000000  1
  Ta  Ta1  1  0.88866667  0.27766667  0.58333333  1
  Ta  Ta1  1  0.88866667  0.27766667  0.91666667  1
  Ta  Ta1  1  0.88866667  0.61100000  0.25000000  1
  Ta  Ta1  1  0.88866667  0.61100000  0.58333333  1
  Ta  Ta1  1  0.88866667  0.61100000  0.91666667  1
  Ta  Ta1  1  0.88866667  0.94433333  0.25000000  1
  Ta  Ta1  1  0.88866667  0.94433333  0.58333333  1
  Ta  Ta1  1  0.88866667  0.94433333  0.91666667  1
  Co  Co1  1  0.11111111  0.22222222  0.08333333  1
  Co  Co1  1  0.11111111  0.22222222  0.41666667  1
  Co  Co1  1  0.11111111  0.22222222  0.75000000  1
  Co  Co1  1  0.11111111  0.55555556  0.08333333  1
  Co  Co1  1  0.11111111  0.55555556  0.41666667  1
  Co  Co1  1  0.11111111  0.55555556  0.75000000  1
  Co  Co1  1  0.11111111  0.88888889  0.08333333  1
  Co  Co1  1  0.11111111  0.88888889  0.41666667  1
  Co  Co1  1  0.11111111  0.88888889  0.75000000  1
  Co  Co1  1  0.44444444  0.22222222  0.08333333  1
  Co  Co1  1  0.44444444  0.22222222  0.41666667  1
  Co  Co1  1  0.44444444  0.22222222  0.75000000  1
  Co  Co1  1  0.44444444  0.55555556  0.08333333  1
  Co  Co1  1  0.44444444  0.55555556  0.41666667  1
  Co  Co1  1  0.44444444  0.55555556  0.75000000  1
  Co  Co1  1  0.44444444  0.88888889  0.08333333  1
  Co  Co1  1  0.44444444  0.88888889  0.41666667  1
  Co  Co1  1  0.44444444  0.88888889  0.75000000  1
  Co  Co1  1  0.77777778  0.22222222  0.08333333  1
  Co  Co1  1  0.77777778  0.22222222  0.41666667  1
  Co  Co1  1  0.77777778  0.22222222  0.75000000  1
  Co  Co1  1  0.77777778  0.55555556  0.08333333  1
  Co  Co1  1  0.77777778  0.55555556  0.41666667  1
  Co  Co1  1  0.77777778  0.55555556  0.75000000  1
  Co  Co1  1  0.77777778  0.88888889  0.08333333  1
  Co  Co1  1  0.77777778  0.88888889  0.41666667  1
  Co  Co1  1  0.77777778  0.88888889  0.75000000  1
  Co  Co1  1  0.22222222  0.11111111  0.25000000  1
  Co  Co1  1  0.22222222  0.11111111  0.58333333  1
  Co  Co1  1  0.22222222  0.11111111  0.91666667  1
  Co  Co1  1  0.22222222  0.44444444  0.25000000  1
  Co  Co1  1  0.22222222  0.44444444  0.58333333  1
  Co  Co1  1  0.22222222  0.44444444  0.91666667  1
  Co  Co1  1  0.22222222  0.77777778  0.25000000  1
  Co  Co1  1  0.22222222  0.77777778  0.58333333  1
  Co  Co1  1  0.22222222  0.77777778  0.91666667  1
  Co  Co1  1  0.55555556  0.11111111  0.25000000  1
  Co  Co1  1  0.55555556  0.11111111  0.58333333  1
  Co  Co1  1  0.55555556  0.11111111  0.91666667  1
  Co  Co1  1  0.55555556  0.44444444  0.25000000  1
  Co  Co1  1  0.55555556  0.44444444  0.58333333  1
  Co  Co1  1  0.55555556  0.44444444  0.91666667  1
  Co  Co1  1  0.55555556  0.77777778  0.25000000  1
  Co  Co1  1  0.55555556  0.77777778  0.58333333  1
  Co  Co1  1  0.55555556  0.77777778  0.91666667  1
  Co  Co1  1  0.88888889  0.11111111  0.25000000  1
  Co  Co1  1  0.88888889  0.11111111  0.58333333  1
  Co  Co1  1  0.88888889  0.11111111  0.91666667  1
  Co  Co1  1  0.88888889  0.44444444  0.25000000  1
  Co  Co1  1  0.88888889  0.44444444  0.58333333  1
  Co  Co1  1  0.88888889  0.44444444  0.91666667  1
  Co  Co1  1  0.88888889  0.77777778  0.25000000  1
  Co  Co1  1  0.88888889  0.77777778  0.58333333  1
  Co  Co1  1  0.88888889  0.77777778  0.91666667  1
