# generated using pymatgen
data_TaCo2
_symmetry_space_group_name_H-M   'P 1'
_cell_length_a   14.52000000
_cell_length_b   14.52000000
_cell_length_c   23.58000000
_cell_angle_alpha   90.00000000
_cell_angle_beta   90.00000000
_cell_angle_gamma   90.00000000
_symmetry_Int_Tables_number   1
_chemical_formula_structural   TaCo2
_chemical_formula_sum   'Ta108 Co216'
_cell_volume   4971.38083200
_cell_formula_units_Z   108
loop_
 _symmetry_equiv_pos_site_id
 _symmetry_equiv_pos_as_xyz
  1  'x, y, z'
loop_
 _atom_site_type_symbol
 _atom_site_label
 _atom_site_symmetry_multiplicity
 _atom_site_fract_x
 _atom_site_fract_y
 _atom_site_fract_z
 _atom_site_occupancy
  Ta  Ta1  1  0.11111111  0.22222222  0.02226833  1
  Ta  Ta1  1  0.11111111  0.22222222  0.35560167  1
  Ta  Ta1  1  0.11111111  0.22222222  0.68893500  1
  Ta  Ta1  1  0.11111111  0.55555556  0.02226833  1
  Ta  Ta1  1  0.11111111  0.55555556  0.35560167  1
  Ta  Ta1  1  0.11111111  0.55555556  0.68893500  1
  Ta  Ta1  1  0.11111111  0.88888889  0.02226833  1
  Ta  Ta1  1  0.11111111  0.88888889  0.35560167  1
  Ta  Ta1  1  0.11111111  0.88888889  0.68893500  1
  Ta  Ta1  1  0.44444444  0.22222222  0.02226833  1
  Ta  Ta1  1  0.44444444  0.22222222  0.35560167  1
  Ta  Ta1  1  0.44444444  0.22222222  0.68893500  1
  Ta  Ta1  1  0.44444444  0.55555556  0.02226833  1
  Ta  Ta1  1  0.44444444  0.55555556  0.35560167  1
  Ta  Ta1  1  0.44444444  0.55555556  0.68893500  1
  Ta  Ta1  1  0.44444444  0.88888889  0.02226833  1
  Ta  Ta1  1  0.44444444  0.88888889  0.35560167  1
  Ta  Ta1  1  0.44444444  0.88888889  0.68893500  1
  Ta  Ta1  1  0.77777778  0.22222222  0.02226833  1
  Ta  Ta1  1  0.77777778  0.22222222  0.35560167  1
  Ta  Ta1  1  0.77777778  0.22222222  0.68893500  1
  Ta  Ta1  1  0.77777778  0.55555556  0.02226833  1
  Ta  Ta1  1  0.77777778  0.55555556  0.35560167  1
  Ta  Ta1  1  0.77777778  0.55555556  0.68893500  1
  Ta  Ta1  1  0.77777778  0.88888889  0.02226833  1
  Ta  Ta1  1  0.77777778  0.88888889  0.35560167  1
  Ta  Ta1  1  0.77777778  0.88888889  0.68893500  1
  Ta  Ta1  1  0.22222222  0.11111111  0.31106500  1
  Ta  Ta1  1  0.22222222  0.11111111  0.64439833  1
  Ta  Ta1  1  0.22222222  0.11111111  0.97773167  1
  Ta  Ta1  1  0.22222222  0.44444444  0.31106500  1
  Ta  Ta1  1  0.22222222  0.44444444  0.64439833  1
  Ta  Ta1  1  0.22222222  0.44444444  0.97773167  1
  Ta  Ta1  1  0.22222222  0.77777778  0.31106500  1
  Ta  Ta1  1  0.22222222  0.77777778  0.64439833  1
  Ta  Ta1  1  0.22222222  0.77777778  0.97773167  1
  Ta  Ta1  1  0.55555556  0.11111111  0.31106500  1
  Ta  Ta1  1  0.55555556  0.11111111  0.64439833  1
  Ta  Ta1  1  0.55555556  0.11111111  0.97773167  1
  Ta  Ta1  1  0.55555556  0.44444444  0.31106500  1
  Ta  Ta1  1  0.55555556  0.44444444  0.64439833  1
  Ta  Ta1  1  0.55555556  0.44444444  0.97773167  1
  Ta  Ta1  1  0.55555556  0.77777778  0.31106500  1
  Ta  Ta1  1  0.55555556  0.77777778  0.64439833  1
  Ta  Ta1  1  0.55555556  0.77777778  0.97773167  1
  Ta  Ta1  1  0.88888889  0.11111111  0.31106500  1
  Ta  Ta1  1  0.88888889  0.11111111  0.64439833  1
  Ta  Ta1  1  0.88888889  0.11111111  0.97773167  1
  Ta  Ta1  1  0.88888889  0.44444444  0.31106500  1
  Ta  Ta1  1  0.88888889  0.44444444  0.64439833  1
  Ta  Ta1  1  0.88888889  0.44444444  0.97773167  1
  Ta  Ta1  1  0.88888889  0.77777778  0.31106500  1
  Ta  Ta1  1  0.88888889  0.77777778  0.64439833  1
  Ta  Ta1  1  0.88888889  0.77777778  0.97773167  1
  Ta  Ta1  1  0.22222222  0.11111111  0.18893500  1
  Ta  Ta1  1  0.22222222  0.11111111  0.52226833  1
  Ta  Ta1  1  0.22222222  0.11111111  0.85560167  1
  Ta  Ta1  1  0.22222222  0.44444444  0.18893500  1
  Ta  Ta1  1  0.22222222  0.44444444  0.52226833  1
  Ta  Ta1  1  0.22222222  0.44444444  0.85560167  1
  Ta  Ta1  1  0.22222222  0.77777778  0.18893500  1
  Ta  Ta1  1  0.22222222  0.77777778  0.52226833  1
  Ta  Ta1  1  0.22222222  0.77777778  0.85560167  1
  Ta  Ta1  1  0.55555556  0.11111111  0.18893500  1
  Ta  Ta1  1  0.55555556  0.11111111  0.52226833  1
  Ta  Ta1  1  0.55555556  0.11111111  0.85560167  1
  Ta  Ta1  1  0.55555556  0.44444444  0.18893500  1
  Ta  Ta1  1  0.55555556  0.44444444  0.52226833  1
  Ta  Ta1  1  0.55555556  0.44444444  0.85560167  1
  Ta  Ta1  1  0.55555556  0.77777778  0.18893500  1
  Ta  Ta1  1  0.55555556  0.77777778  0.52226833  1
  Ta  Ta1  1  0.55555556  0.77777778  0.85560167  1
  Ta  Ta1  1  0.88888889  0.11111111  0.18893500  1
  Ta  Ta1  1  0.88888889  0.11111111  0.52226833  1
  Ta  Ta1  1  0.88888889  0.11111111  0.85560167  1
  Ta  Ta1  1  0.88888889  0.44444444  0.18893500  1
  Ta  Ta1  1  0.88888889  0.44444444  0.52226833  1
  Ta  Ta1  1  0.88888889  0.44444444  0.85560167  1
  Ta  Ta1  1  0.88888889  0.77777778  0.18893500  1
  Ta  Ta1  1  0.88888889  0.77777778  0.52226833  1
  Ta  Ta1  1  0.88888889  0.77777778  0.85560167  1
  Ta  Ta1  1  0.11111111  0.22222222  0.14439833  1
  Ta  Ta1  1  0.11111111  0.22222222  0.47773167  1
  Ta  Ta1  1  0.11111111  0.22222222  0.81106500  1
  Ta  Ta1  1  0.11111111  0.55555556  0.14439833  1
  Ta  Ta1  1  0.11111111  0.55555556  0.47773167  1
  Ta  Ta1  1  0.11111111  0.55555556  0.81106500  1
  Ta  Ta1  1  0.11111111  0.88888889  0.14439833  1
  Ta  Ta1  1  0.11111111  0.88888889  0.47773167  1
  Ta  Ta1  1  0.11111111  0.88888889  0.81106500  1
  Ta  Ta1  1  0.44444444  0.22222222  0.14439833  1
  Ta  Ta1  1  0.44444444  0.22222222  0.47773167  1
  Ta  Ta1  1  0.44444444  0.22222222  0.81106500  1
  Ta  Ta1  1  0.44444444  0.55555556  0.14439833  1
  Ta  Ta1  1  0.44444444  0.55555556  0.47773167  1
  Ta  Ta1  1  0.44444444  0.55555556  0.81106500  1
  Ta  Ta1  1  0.44444444  0.88888889  0.14439833  1
  Ta  Ta1  1  0.44444444  0.88888889  0.47773167  1
  Ta  Ta1  1  0.44444444  0.88888889  0.81106500  1
  Ta  Ta1  1  0.77777778  0.22222222  0.14439833  1
  Ta  Ta1  1  0.77777778  0.22222222  0.47773167  1
  Ta  Ta1  1  0.77777778  0.22222222  0.81106500  1
  Ta  Ta1  1  0.77777778  0.55555556  0.14439833  1
  Ta  Ta1  1  0.77777778  0.55555556  0.47773167  1
  Ta  Ta1  1  0.77777778  0.55555556  0.81106500  1
  Ta  Ta1  1  0.77777778  0.88888889  0.14439833  1
  Ta  Ta1  1  0.77777778  0.88888889  0.47773167  1
  Ta  Ta1  1  0.77777778  0.88888889  0.81106500  1
  Co  Co1  1  0.00000000  0.00000000  0.00000000  1
  Co  Co1  1  0.00000000  0.00000000  0.33333333  1
  Co  Co1  1  0.00000000  0.00000000  0.66666667  1
  Co  Co1  1  0.00000000  0.33333333  0.00000000  1
  Co  Co1  1  0.00000000  0.33333333  0.33333333  1
  Co  Co1  1  0.00000000  0.33333333  0.66666667  1
  Co  Co1  1  0.00000000  0.66666667  0.00000000  1
  Co  Co1  1  0.00000000  0.66666667  0.33333333  1
  Co  Co1  1  0.00000000  0.66666667  0.66666667  1
  Co  Co1  1  0.33333333  0.00000000  0.00000000  1
  Co  Co1  1  0.33333333  0.00000000  0.33333333  1
  Co  Co1  1  0.33333333  0.00000000  0.66666667  1
  Co  Co1  1  0.33333333  0.33333333  0.00000000  1
  Co  Co1  1  0.33333333  0.33333333  0.33333333  1
  Co  Co1  1  0.33333333  0.33333333  0.66666667  1
  Co  Co1  1  0.33333333  0.66666667  0.00000000  1
  Co  Co1  1  0.33333333  0.66666667  0.33333333  1
  Co  Co1  1  0.33333333  0.66666667  0.66666667  1
  Co  Co1  1  0.66666667  0.00000000  0.00000000  1
  Co  Co1  1  0.66666667  0.00000000  0.33333333  1
  Co  Co1  1  0.66666667  0.00000000  0.66666667  1
  Co  Co1  1  0.66666667  0.33333333  0.00000000  1
  Co  Co1  1  0.66666667  0.33333333  0.33333333  1
  Co  Co1  1  0.66666667  0.33333333  0.66666667  1
  Co  Co1  1  0.66666667  0.66666667  0.00000000  1
  Co  Co1  1  0.66666667  0.66666667  0.33333333  1
  Co  Co1  1  0.66666667  0.66666667  0.66666667  1
  Co  Co1  1  0.00000000  0.00000000  0.16666667  1
  Co  Co1  1  0.00000000  0.00000000  0.50000000  1
  Co  Co1  1  0.00000000  0.00000000  0.83333333  1
  Co  Co1  1  0.00000000  0.33333333  0.16666667  1
  Co  Co1  1  0.00000000  0.33333333  0.50000000  1
  Co  Co1  1  0.00000000  0.33333333  0.83333333  1
  Co  Co1  1  0.00000000  0.66666667  0.16666667  1
  Co  Co1  1  0.00000000  0.66666667  0.50000000  1
  Co  Co1  1  0.00000000  0.66666667  0.83333333  1
  Co  Co1  1  0.33333333  0.00000000  0.16666667  1
  Co  Co1  1  0.33333333  0.00000000  0.50000000  1
  Co  Co1  1  0.33333333  0.00000000  0.83333333  1
  Co  Co1  1  0.33333333  0.33333333  0.16666667  1
  Co  Co1  1  0.33333333  0.33333333  0.50000000  1
  Co  Co1  1  0.33333333  0.33333333  0.83333333  1
  Co  Co1  1  0.33333333  0.66666667  0.16666667  1
  Co  Co1  1  0.33333333  0.66666667  0.50000000  1
  Co  Co1  1  0.33333333  0.66666667  0.83333333  1
  Co  Co1  1  0.66666667  0.00000000  0.16666667  1
  Co  Co1  1  0.66666667  0.00000000  0.50000000  1
  Co  Co1  1  0.66666667  0.00000000  0.83333333  1
  Co  Co1  1  0.66666667  0.33333333  0.16666667  1
  Co  Co1  1  0.66666667  0.33333333  0.50000000  1
  Co  Co1  1  0.66666667  0.33333333  0.83333333  1
  Co  Co1  1  0.66666667  0.66666667  0.16666667  1
  Co  Co1  1  0.66666667  0.66666667  0.50000000  1
  Co  Co1  1  0.66666667  0.66666667  0.83333333  1
  Co  Co2  1  0.11325600  0.05662800  0.08333333  1
  Co  Co2  1  0.11325600  0.05662800  0.41666667  1
  Co  Co2  1  0.11325600  0.05662800  0.75000000  1
  Co  Co2  1  0.11325600  0.38996133  0.08333333  1
  Co  Co2  1  0.11325600  0.38996133  0.41666667  1
  Co  Co2  1  0.11325600  0.38996133  0.75000000  1
  Co  Co2  1  0.11325600  0.72329467  0.08333333  1
  Co  Co2  1  0.11325600  0.72329467  0.41666667  1
  Co  Co2  1  0.11325600  0.72329467  0.75000000  1
  Co  Co2  1  0.44658933  0.05662800  0.08333333  1
  Co  Co2  1  0.44658933  0.05662800  0.41666667  1
  Co  Co2  1  0.44658933  0.05662800  0.75000000  1
  Co  Co2  1  0.44658933  0.38996133  0.08333333  1
  Co  Co2  1  0.44658933  0.38996133  0.41666667  1
  Co  Co2  1  0.44658933  0.38996133  0.75000000  1
  Co  Co2  1  0.44658933  0.72329467  0.08333333  1
  Co  Co2  1  0.44658933  0.72329467  0.41666667  1
  Co  Co2  1  0.44658933  0.72329467  0.75000000  1
  Co  Co2  1  0.77992267  0.05662800  0.08333333  1
  Co  Co2  1  0.77992267  0.05662800  0.41666667  1
  Co  Co2  1  0.77992267  0.05662800  0.75000000  1
  Co  Co2  1  0.77992267  0.38996133  0.08333333  1
  Co  Co2  1  0.77992267  0.38996133  0.41666667  1
  Co  Co2  1  0.77992267  0.38996133  0.75000000  1
  Co  Co2  1  0.77992267  0.72329467  0.08333333  1
  Co  Co2  1  0.77992267  0.72329467  0.41666667  1
  Co  Co2  1  0.77992267  0.72329467  0.75000000  1
  Co  Co2  1  0.22007733  0.27670533  0.25000000  1
  Co  Co2  1  0.22007733  0.27670533  0.58333333  1
  Co  Co2  1  0.22007733  0.27670533  0.91666667  1
  Co  Co2  1  0.22007733  0.61003867  0.25000000  1
  Co  Co2  1  0.22007733  0.61003867  0.58333333  1
  Co  Co2  1  0.22007733  0.61003867  0.91666667  1
  Co  Co2  1  0.22007733  0.94337200  0.25000000  1
  Co  Co2  1  0.22007733  0.94337200  0.58333333  1
  Co  Co2  1  0.22007733  0.94337200  0.91666667  1
  Co  Co2  1  0.55341067  0.27670533  0.25000000  1
  Co  Co2  1  0.55341067  0.27670533  0.58333333  1
  Co  Co2  1  0.55341067  0.27670533  0.91666667  1
  Co  Co2  1  0.55341067  0.61003867  0.25000000  1
  Co  Co2  1  0.55341067  0.61003867  0.58333333  1
  Co  Co2  1  0.55341067  0.61003867  0.91666667  1
  Co  Co2  1  0.55341067  0.94337200  0.25000000  1
  Co  Co2  1  0.55341067  0.94337200  0.58333333  1
  Co  Co2  1  0.55341067  0.94337200  0.91666667  1
  Co  Co2  1  0.88674400  0.27670533  0.25000000  1
  Co  Co2  1  0.88674400  0.27670533  0.58333333  1
  Co  Co2  1  0.88674400  0.27670533  0.91666667  1
  Co  Co2  1  0.88674400  0.61003867  0.25000000  1
  Co  Co2  1  0.88674400  0.61003867  0.58333333  1
  Co  Co2  1  0.88674400  0.61003867  0.91666667  1
  Co  Co2  1  0.88674400  0.94337200  0.25000000  1
  Co  Co2  1  0.88674400  0.94337200  0.58333333  1
  Co  Co2  1  0.88674400  0.94337200  0.91666667  1
  Co  Co2  1  0.27670533  0.05662800  0.08333333  1
  Co  Co2  1  0.27670533  0.05662800  0.41666667  1
  Co  Co2  1  0.27670533  0.05662800  0.75000000  1
  Co  Co2  1  0.27670533  0.38996133  0.08333333  1
  Co  Co2  1  0.27670533  0.38996133  0.41666667  1
  Co  Co2  1  0.27670533  0.38996133  0.75000000  1
  Co  Co2  1  0.27670533  0.72329467  0.08333333  1
  Co  Co2  1  0.27670533  0.72329467  0.41666667  1
  Co  Co2  1  0.27670533  0.72329467  0.75000000  1
  Co  Co2  1  0.61003867  0.05662800  0.08333333  1
  Co  Co2  1  0.61003867  0.05662800  0.41666667  1
  Co  Co2  1  0.61003867  0.05662800  0.75000000  1
  Co  Co2  1  0.61003867  0.38996133  0.08333333  1
  Co  Co2  1  0.61003867  0.38996133  0.41666667  1
  Co  Co2  1  0.61003867  0.38996133  0.75000000  1
  Co  Co2  1  0.61003867  0.72329467  0.08333333  1
  Co  Co2  1  0.61003867  0.72329467  0.41666667  1
  Co  Co2  1  0.61003867  0.72329467  0.75000000  1
  Co  Co2  1  0.94337200  0.05662800  0.08333333  1
  Co  Co2  1  0.94337200  0.05662800  0.41666667  1
  Co  Co2  1  0.94337200  0.05662800  0.75000000  1
  Co  Co2  1  0.94337200  0.38996133  0.08333333  1
  Co  Co2  1  0.94337200  0.38996133  0.41666667  1
  Co  Co2  1  0.94337200  0.38996133  0.75000000  1
  Co  Co2  1  0.94337200  0.72329467  0.08333333  1
  Co  Co2  1  0.94337200  0.72329467  0.41666667  1
  Co  Co2  1  0.94337200  0.72329467  0.75000000  1
  Co  Co2  1  0.05662800  0.27670533  0.25000000  1
  Co  Co2  1  0.05662800  0.27670533  0.58333333  1
  Co  Co2  1  0.05662800  0.27670533  0.91666667  1
  Co  Co2  1  0.05662800  0.61003867  0.25000000  1
  Co  Co2  1  0.05662800  0.61003867  0.58333333  1
  Co  Co2  1  0.05662800  0.61003867  0.91666667  1
  Co  Co2  1  0.05662800  0.94337200  0.25000000  1
  Co  Co2  1  0.05662800  0.94337200  0.58333333  1
  Co  Co2  1  0.05662800  0.94337200  0.91666667  1
  Co  Co2  1  0.38996133  0.27670533  0.25000000  1
  Co  Co2  1  0.38996133  0.27670533  0.58333333  1
  Co  Co2  1  0.38996133  0.27670533  0.91666667  1
  Co  Co2  1  0.38996133  0.61003867  0.25000000  1
  Co  Co2  1  0.38996133  0.61003867  0.58333333  1
  Co  Co2  1  0.38996133  0.61003867  0.91666667  1
  Co  Co2  1  0.38996133  0.94337200  0.25000000  1
  Co  Co2  1  0.38996133  0.94337200  0.58333333  1
  Co  Co2  1  0.38996133  0.94337200  0.91666667  1
  Co  Co2  1  0.72329467  0.27670533  0.25000000  1
  Co  Co2  1  0.72329467  0.27670533  0.58333333  1
  Co  Co2  1  0.72329467  0.27670533  0.91666667  1
  Co  Co2  1  0.72329467  0.61003867  0.25000000  1
  Co  Co2  1  0.72329467  0.61003867  0.58333333  1
  Co  Co2  1  0.72329467  0.61003867  0.91666667  1
  Co  Co2  1  0.72329467  0.94337200  0.25000000  1
  Co  Co2  1  0.72329467  0.94337200  0.58333333  1
  Co  Co2  1  0.72329467  0.94337200  0.91666667  1
  Co  Co2  1  0.27670533  0.22007733  0.08333333  1
  Co  Co2  1  0.27670533  0.22007733  0.41666667  1
  Co  Co2  1  0.27670533  0.22007733  0.75000000  1
  Co  Co2  1  0.27670533  0.55341067  0.08333333  1
  Co  Co2  1  0.27670533  0.55341067  0.41666667  1
  Co  Co2  1  0.27670533  0.55341067  0.75000000  1
  Co  Co2  1  0.27670533  0.88674400  0.08333333  1
  Co  Co2  1  0.27670533  0.88674400  0.41666667  1
  Co  Co2  1  0.27670533  0.88674400  0.75000000  1
  Co  Co2  1  0.61003867  0.22007733  0.08333333  1
  Co  Co2  1  0.61003867  0.22007733  0.41666667  1
  Co  Co2  1  0.61003867  0.22007733  0.75000000  1
  Co  Co2  1  0.61003867  0.55341067  0.08333333  1
  Co  Co2  1  0.61003867  0.55341067  0.41666667  1
  Co  Co2  1  0.61003867  0.55341067  0.75000000  1
  Co  Co2  1  0.61003867  0.88674400  0.08333333  1
  Co  Co2  1  0.61003867  0.88674400  0.41666667  1
  Co  Co2  1  0.61003867  0.88674400  0.75000000  1
  Co  Co2  1  0.94337200  0.22007733  0.08333333  1
  Co  Co2  1  0.94337200  0.22007733  0.41666667  1
  Co  Co2  1  0.94337200  0.22007733  0.75000000  1
  Co  Co2  1  0.94337200  0.55341067  0.08333333  1
  Co  Co2  1  0.94337200  0.55341067  0.41666667  1
  Co  Co2  1  0.94337200  0.55341067  0.75000000  1
  Co  Co2  1  0.94337200  0.88674400  0.08333333  1
  Co  Co2  1  0.94337200  0.88674400  0.41666667  1
  Co  Co2  1  0.94337200  0.88674400  0.75000000  1
  Co  Co2  1  0.05662800  0.11325600  0.25000000  1
  Co  Co2  1  0.05662800  0.11325600  0.58333333  1
  Co  Co2  1  0.05662800  0.11325600  0.91666667  1
  Co  Co2  1  0.05662800  0.44658933  0.25000000  1
  Co  Co2  1  0.05662800  0.44658933  0.58333333  1
  Co  Co2  1  0.05662800  0.44658933  0.91666667  1
  Co  Co2  1  0.05662800  0.77992267  0.25000000  1
  Co  Co2  1  0.05662800  0.77992267  0.58333333  1
  Co  Co2  1  0.05662800  0.77992267  0.91666667  1
  Co  Co2  1  0.38996133  0.11325600  0.25000000  1
  Co  Co2  1  0.38996133  0.11325600  0.58333333  1
  Co  Co2  1  0.38996133  0.11325600  0.91666667  1
  Co  Co2  1  0.38996133  0.44658933  0.25000000  1
  Co  Co2  1  0.38996133  0.44658933  0.58333333  1
  Co  Co2  1  0.38996133  0.44658933  0.91666667  1
  Co  Co2  1  0.38996133  0.77992267  0.25000000  1
  Co  Co2  1  0.38996133  0.77992267  0.58333333  1
  Co  Co2  1  0.38996133  0.77992267  0.91666667  1
  Co  Co2  1  0.72329467  0.11325600  0.25000000  1
  Co  Co2  1  0.72329467  0.11325600  0.58333333  1
  Co  Co2  1  0.72329467  0.11325600  0.91666667  1
  Co  Co2  1  0.72329467  0.44658933  0.25000000  1
  Co  Co2  1  0.72329467  0.44658933  0.58333333  1
  Co  Co2  1  0.72329467  0.44658933  0.91666667  1
  Co  Co2  1  0.72329467  0.77992267  0.25000000  1
  Co  Co2  1  0.72329467  0.77992267  0.58333333  1
  Co  Co2  1  0.72329467  0.77992267  0.91666667  1
