# generated using pymatgen
data_TaCo
_symmetry_space_group_name_H-M   'P 1'
_cell_length_a   6.14000000
_cell_length_b   6.14000000
_cell_length_c   6.14000000
_cell_angle_alpha   90.00000000
_cell_angle_beta   90.00000000
_cell_angle_gamma   90.00000000
_symmetry_Int_Tables_number   1
_chemical_formula_structural   TaCo
_chemical_formula_sum   'Ta8 Co8'
_cell_volume   231.47554400
_cell_formula_units_Z   8
loop_
 _symmetry_equiv_pos_site_id
 _symmetry_equiv_pos_as_xyz
  1  'x, y, z'
loop_
 _atom_site_type_symbol
 _atom_site_label
 _atom_site_symmetry_multiplicity
 _atom_site_fract_x
 _atom_site_fract_y
 _atom_site_fract_z
 _atom_site_occupancy
  Co  Co  1  0.00000000  0.00000000  0.00000000  1
  Co  Co  1  0.00000000  0.00000000  0.50000000  1
  Co  Co  1  0.00000000  0.50000000  0.00000000  1
  Co  Co  1  0.00000000  0.50000000  0.50000000  1
  Co  Co  1  0.50000000  0.00000000  0.00000000  1
  Co  Co  1  0.50000000  0.00000000  0.50000000  1
  Co  Co  1  0.50000000  0.50000000  0.00000000  1
  Co  Co  1  0.50000000  0.50000000  0.50000000  1
  Ta  Ta  1  0.25000000  0.25000000  0.25000000  1
  Ta  Ta  1  0.25000000  0.25000000  0.75000000  1
  Ta  Ta  1  0.25000000  0.75000000  0.25000000  1
  Ta  Ta  1  0.25000000  0.75000000  0.75000000  1
  Ta  Ta  1  0.75000000  0.25000000  0.25000000  1
  Ta  Ta  1  0.75000000  0.25000000  0.75000000  1
  Ta  Ta  1  0.75000000  0.75000000  0.25000000  1
  Ta  Ta  1  0.75000000  0.75000000  0.75000000  1
