# generated using pymatgen
data_Ta6Co7
_symmetry_space_group_name_H-M   'P 1'
_cell_length_a   4.93000000
_cell_length_b   4.93000000
_cell_length_c   26.44000000
_cell_angle_alpha   90.00000000
_cell_angle_beta   90.00000000
_cell_angle_gamma   90.00000000
_symmetry_Int_Tables_number   1
_chemical_formula_structural   Ta6Co7
_chemical_formula_sum   'Ta18 Co21'
_cell_volume   642.62155600
_cell_formula_units_Z   3
loop_
 _symmetry_equiv_pos_site_id
 _symmetry_equiv_pos_as_xyz
  1  'x, y, z'
loop_
 _atom_site_type_symbol
 _atom_site_label
 _atom_site_symmetry_multiplicity
 _atom_site_fract_x
 _atom_site_fract_y
 _atom_site_fract_z
 _atom_site_occupancy
  Co  Co0  1  0.00000000  0.00000000  0.00000000  1
  Co  Co1  1  0.83385367  0.66770733  0.25692833  1
  Co  Co2  1  0.83385367  0.16614633  0.25692833  1
  Co  Co3  1  0.33229267  0.16614633  0.25692833  1
  Co  Co4  1  0.33437400  0.16718700  0.07640500  1
  Co  Co5  1  0.83281300  0.66562600  0.07640500  1
  Co  Co6  1  0.83281300  0.16718700  0.07640500  1
  Co  Co7  1  0.66666667  0.33333333  0.33333333  1
  Co  Co8  1  0.50052033  0.00104067  0.59026167  1
  Co  Co9  1  0.50052033  0.49947967  0.59026167  1
  Co  Co10  1  0.99895933  0.49947967  0.59026167  1
  Co  Co11  1  0.00104067  0.50052033  0.40973833  1
  Co  Co12  1  0.49947967  0.99895933  0.40973833  1
  Co  Co13  1  0.49947967  0.50052033  0.40973833  1
  Co  Co14  1  0.33333333  0.66666667  0.66666667  1
  Co  Co15  1  0.16718700  0.33437400  0.92359500  1
  Co  Co16  1  0.16718700  0.83281300  0.92359500  1
  Co  Co17  1  0.66562600  0.83281300  0.92359500  1
  Co  Co18  1  0.66770733  0.83385367  0.74307167  1
  Co  Co19  1  0.16614633  0.33229267  0.74307167  1
  Co  Co20  1  0.16614633  0.83385367  0.74307167  1
  Ta  Ta21  1  0.00000000  0.00000000  0.16610000  1
  Ta  Ta22  1  0.66666667  0.33333333  0.16723333  1
  Ta  Ta23  1  0.33333333  0.66666667  0.01410367  1
  Ta  Ta24  1  0.33333333  0.66666667  0.31922967  1
  Ta  Ta25  1  0.33333333  0.66666667  0.11703667  1
  Ta  Ta26  1  0.33333333  0.66666667  0.21629667  1
  Ta  Ta27  1  0.66666667  0.33333333  0.49943333  1
  Ta  Ta28  1  0.33333333  0.66666667  0.50056667  1
  Ta  Ta29  1  0.00000000  0.00000000  0.34743700  1
  Ta  Ta30  1  0.00000000  0.00000000  0.65256300  1
  Ta  Ta31  1  0.00000000  0.00000000  0.45037000  1
  Ta  Ta32  1  0.00000000  0.00000000  0.54963000  1
  Ta  Ta33  1  0.33333333  0.66666667  0.83276667  1
  Ta  Ta34  1  0.00000000  0.00000000  0.83390000  1
  Ta  Ta35  1  0.66666667  0.33333333  0.68077033  1
  Ta  Ta36  1  0.66666667  0.33333333  0.98589633  1
  Ta  Ta37  1  0.66666667  0.33333333  0.78370333  1
  Ta  Ta38  1  0.66666667  0.33333333  0.88296333  1
