# generated using pymatgen
data_Ta2Co
_symmetry_space_group_name_H-M   'P 1'
_cell_length_a   12.24000000
_cell_length_b   12.24000000
_cell_length_c   9.94000000
_cell_angle_alpha   90.00000000
_cell_angle_beta   90.00000000
_cell_angle_gamma   90.00000000
_symmetry_Int_Tables_number   1
_chemical_formula_structural   Ta2Co
_chemical_formula_sum   'Ta64 Co32'
_cell_volume   1489.18694400
_cell_formula_units_Z   32
loop_
 _symmetry_equiv_pos_site_id
 _symmetry_equiv_pos_as_xyz
  1  'x, y, z'
loop_
 _atom_site_type_symbol
 _atom_site_label
 _atom_site_symmetry_multiplicity
 _atom_site_fract_x
 _atom_site_fract_y
 _atom_site_fract_z
 _atom_site_occupancy
  Ta  Ta0  1  0.17069655  0.07930346  0.25000000  1
  Ta  Ta0  1  0.17069655  0.07930346  0.75000000  1
  Ta  Ta0  1  0.17069655  0.57930346  0.25000000  1
  Ta  Ta0  1  0.17069655  0.57930346  0.75000000  1
  Ta  Ta0  1  0.67069654  0.07930346  0.25000000  1
  Ta  Ta0  1  0.67069654  0.07930346  0.75000000  1
  Ta  Ta0  1  0.67069655  0.57930346  0.25000000  1
  Ta  Ta0  1  0.67069655  0.57930346  0.75000000  1
  Ta  Ta1  1  0.32930346  0.07930346  0.00000000  1
  Ta  Ta1  1  0.32930346  0.07930346  0.50000000  1
  Ta  Ta1  1  0.32930346  0.57930346  0.00000000  1
  Ta  Ta1  1  0.32930346  0.57930346  0.50000000  1
  Ta  Ta1  1  0.82930346  0.07930346  0.00000000  1
  Ta  Ta1  1  0.82930346  0.07930346  0.50000000  1
  Ta  Ta1  1  0.82930346  0.57930346  0.00000000  1
  Ta  Ta1  1  0.82930346  0.57930346  0.50000000  1
  Ta  Ta2  1  0.17069655  0.42069654  0.00000000  1
  Ta  Ta2  1  0.17069655  0.42069654  0.50000000  1
  Ta  Ta2  1  0.17069655  0.92069655  0.00000000  1
  Ta  Ta2  1  0.17069655  0.92069655  0.50000000  1
  Ta  Ta2  1  0.67069655  0.42069654  0.00000000  1
  Ta  Ta2  1  0.67069655  0.42069654  0.50000000  1
  Ta  Ta2  1  0.67069655  0.92069655  0.00000000  1
  Ta  Ta2  1  0.67069655  0.92069655  0.50000000  1
  Ta  Ta3  1  0.32930346  0.42069654  0.25000000  1
  Ta  Ta3  1  0.32930346  0.42069654  0.75000000  1
  Ta  Ta3  1  0.32930346  0.92069655  0.25000000  1
  Ta  Ta3  1  0.32930346  0.92069655  0.75000000  1
  Ta  Ta3  1  0.82930346  0.42069654  0.25000000  1
  Ta  Ta3  1  0.82930346  0.42069654  0.75000000  1
  Ta  Ta3  1  0.82930346  0.92069655  0.25000000  1
  Ta  Ta3  1  0.82930346  0.92069655  0.75000000  1
  Ta  Ta4  1  0.42069654  0.32930346  0.00000000  1
  Ta  Ta4  1  0.42069654  0.32930346  0.50000000  1
  Ta  Ta4  1  0.42069654  0.82930346  0.00000000  1
  Ta  Ta4  1  0.42069654  0.82930346  0.50000000  1
  Ta  Ta4  1  0.92069655  0.32930346  0.00000000  1
  Ta  Ta4  1  0.92069655  0.32930346  0.50000000  1
  Ta  Ta4  1  0.92069654  0.82930346  0.00000000  1
  Ta  Ta4  1  0.92069654  0.82930346  0.50000000  1
  Ta  Ta5  1  0.07930346  0.32930346  0.25000000  1
  Ta  Ta5  1  0.07930346  0.32930346  0.75000000  1
  Ta  Ta5  1  0.07930346  0.82930346  0.25000000  1
  Ta  Ta5  1  0.07930346  0.82930346  0.75000000  1
  Ta  Ta5  1  0.57930346  0.32930346  0.25000000  1
  Ta  Ta5  1  0.57930346  0.32930346  0.75000000  1
  Ta  Ta5  1  0.57930346  0.82930346  0.25000000  1
  Ta  Ta5  1  0.57930346  0.82930346  0.75000000  1
  Ta  Ta6  1  0.42069654  0.17069655  0.25000000  1
  Ta  Ta6  1  0.42069654  0.17069655  0.75000000  1
  Ta  Ta6  1  0.42069654  0.67069654  0.25000000  1
  Ta  Ta6  1  0.42069654  0.67069654  0.75000000  1
  Ta  Ta6  1  0.92069655  0.17069655  0.25000000  1
  Ta  Ta6  1  0.92069655  0.17069655  0.75000000  1
  Ta  Ta6  1  0.92069654  0.67069654  0.25000000  1
  Ta  Ta6  1  0.92069654  0.67069654  0.75000000  1
  Ta  Ta7  1  0.07930346  0.17069655  0.00000000  1
  Ta  Ta7  1  0.07930346  0.17069655  0.50000000  1
  Ta  Ta7  1  0.07930346  0.67069654  0.00000000  1
  Ta  Ta7  1  0.07930346  0.67069654  0.50000000  1
  Ta  Ta7  1  0.57930346  0.17069655  0.00000000  1
  Ta  Ta7  1  0.57930346  0.17069655  0.50000000  1
  Ta  Ta7  1  0.57930346  0.67069654  0.00000000  1
  Ta  Ta7  1  0.57930346  0.67069654  0.50000000  1
  Co  Co8  1  0.00000000  0.00000000  0.12500000  1
  Co  Co8  1  0.00000000  0.00000000  0.62500000  1
  Co  Co8  1  0.00000000  0.50000000  0.12500000  1
  Co  Co8  1  0.00000000  0.50000000  0.62500000  1
  Co  Co8  1  0.50000000  0.00000000  0.12500000  1
  Co  Co8  1  0.50000000  0.00000000  0.62500000  1
  Co  Co8  1  0.50000000  0.50000000  0.12500000  1
  Co  Co8  1  0.50000000  0.50000000  0.62500000  1
  Co  Co9  1  0.00000000  0.00000000  0.37500000  1
  Co  Co9  1  0.00000000  0.00000000  0.87500000  1
  Co  Co9  1  0.00000000  0.50000000  0.37500000  1
  Co  Co9  1  0.00000000  0.50000000  0.87500000  1
  Co  Co9  1  0.50000000  0.00000000  0.37500000  1
  Co  Co9  1  0.50000000  0.00000000  0.87500000  1
  Co  Co9  1  0.50000000  0.50000000  0.37500000  1
  Co  Co9  1  0.50000000  0.50000000  0.87500000  1
  Co  Co10  1  0.25000000  0.25000000  0.37500000  1
  Co  Co10  1  0.25000000  0.25000000  0.87500000  1
  Co  Co10  1  0.25000000  0.75000000  0.37500000  1
  Co  Co10  1  0.25000000  0.75000000  0.87500000  1
  Co  Co10  1  0.75000000  0.25000000  0.37500000  1
  Co  Co10  1  0.75000000  0.25000000  0.87500000  1
  Co  Co10  1  0.75000000  0.75000000  0.37500000  1
  Co  Co10  1  0.75000000  0.75000000  0.87500000  1
  Co  Co11  1  0.25000000  0.25000000  0.12500000  1
  Co  Co11  1  0.25000000  0.25000000  0.62500000  1
  Co  Co11  1  0.25000000  0.75000000  0.12500000  1
  Co  Co11  1  0.25000000  0.75000000  0.62500000  1
  Co  Co11  1  0.75000000  0.25000000  0.12500000  1
  Co  Co11  1  0.75000000  0.25000000  0.62500000  1
  Co  Co11  1  0.75000000  0.75000000  0.12500000  1
  Co  Co11  1  0.75000000  0.75000000  0.62500000  1
