# generated using pymatgen
data_TaCo2
_symmetry_space_group_name_H-M   'P 1'
_cell_length_a   9.52000000
_cell_length_b   9.52000000
_cell_length_c   31.00000000
_cell_angle_alpha   90.00000000
_cell_angle_beta   90.00000000
_cell_angle_gamma   90.00000000
_symmetry_Int_Tables_number   1
_chemical_formula_structural   TaCo2
_chemical_formula_sum   'Ta64 Co128'
_cell_volume   2809.54240000
_cell_formula_units_Z   64
loop_
 _symmetry_equiv_pos_site_id
 _symmetry_equiv_pos_as_xyz
  1  'x, y, z'
loop_
 _atom_site_type_symbol
 _atom_site_label
 _atom_site_symmetry_multiplicity
 _atom_site_fract_x
 _atom_site_fract_y
 _atom_site_fract_z
 _atom_site_occupancy
  Ta  Ta1  1  0.00000000  0.00000000  0.04700000  1
  Ta  Ta1  1  0.00000000  0.00000000  0.54700000  1
  Ta  Ta1  1  0.00000000  0.50000000  0.04700000  1
  Ta  Ta1  1  0.00000000  0.50000000  0.54700000  1
  Ta  Ta1  1  0.50000000  0.00000000  0.04700000  1
  Ta  Ta1  1  0.50000000  0.00000000  0.54700000  1
  Ta  Ta1  1  0.50000000  0.50000000  0.04700000  1
  Ta  Ta1  1  0.50000000  0.50000000  0.54700000  1
  Ta  Ta1  1  0.00000000  0.00000000  0.29700000  1
  Ta  Ta1  1  0.00000000  0.00000000  0.79700000  1
  Ta  Ta1  1  0.00000000  0.50000000  0.29700000  1
  Ta  Ta1  1  0.00000000  0.50000000  0.79700000  1
  Ta  Ta1  1  0.50000000  0.00000000  0.29700000  1
  Ta  Ta1  1  0.50000000  0.00000000  0.79700000  1
  Ta  Ta1  1  0.50000000  0.50000000  0.29700000  1
  Ta  Ta1  1  0.50000000  0.50000000  0.79700000  1
  Ta  Ta1  1  0.00000000  0.00000000  0.20300000  1
  Ta  Ta1  1  0.00000000  0.00000000  0.70300000  1
  Ta  Ta1  1  0.00000000  0.50000000  0.20300000  1
  Ta  Ta1  1  0.00000000  0.50000000  0.70300000  1
  Ta  Ta1  1  0.50000000  0.00000000  0.20300000  1
  Ta  Ta1  1  0.50000000  0.00000000  0.70300000  1
  Ta  Ta1  1  0.50000000  0.50000000  0.20300000  1
  Ta  Ta1  1  0.50000000  0.50000000  0.70300000  1
  Ta  Ta1  1  0.00000000  0.00000000  0.45300000  1
  Ta  Ta1  1  0.00000000  0.00000000  0.95300000  1
  Ta  Ta1  1  0.00000000  0.50000000  0.45300000  1
  Ta  Ta1  1  0.00000000  0.50000000  0.95300000  1
  Ta  Ta1  1  0.50000000  0.00000000  0.45300000  1
  Ta  Ta1  1  0.50000000  0.00000000  0.95300000  1
  Ta  Ta1  1  0.50000000  0.50000000  0.45300000  1
  Ta  Ta1  1  0.50000000  0.50000000  0.95300000  1
  Ta  Ta2  1  0.16666667  0.33333333  0.42210000  1
  Ta  Ta2  1  0.16666667  0.33333333  0.92210000  1
  Ta  Ta2  1  0.16666667  0.83333333  0.42210000  1
  Ta  Ta2  1  0.16666667  0.83333333  0.92210000  1
  Ta  Ta2  1  0.66666667  0.33333333  0.42210000  1
  Ta  Ta2  1  0.66666667  0.33333333  0.92210000  1
  Ta  Ta2  1  0.66666667  0.83333333  0.42210000  1
  Ta  Ta2  1  0.66666667  0.83333333  0.92210000  1
  Ta  Ta2  1  0.33333333  0.16666667  0.17210000  1
  Ta  Ta2  1  0.33333333  0.16666667  0.67210000  1
  Ta  Ta2  1  0.33333333  0.66666667  0.17210000  1
  Ta  Ta2  1  0.33333333  0.66666667  0.67210000  1
  Ta  Ta2  1  0.83333333  0.16666667  0.17210000  1
  Ta  Ta2  1  0.83333333  0.16666667  0.67210000  1
  Ta  Ta2  1  0.83333333  0.66666667  0.17210000  1
  Ta  Ta2  1  0.83333333  0.66666667  0.67210000  1
  Ta  Ta2  1  0.16666667  0.33333333  0.32790000  1
  Ta  Ta2  1  0.16666667  0.33333333  0.82790000  1
  Ta  Ta2  1  0.16666667  0.83333333  0.32790000  1
  Ta  Ta2  1  0.16666667  0.83333333  0.82790000  1
  Ta  Ta2  1  0.66666667  0.33333333  0.32790000  1
  Ta  Ta2  1  0.66666667  0.33333333  0.82790000  1
  Ta  Ta2  1  0.66666667  0.83333333  0.32790000  1
  Ta  Ta2  1  0.66666667  0.83333333  0.82790000  1
  Ta  Ta2  1  0.33333333  0.16666667  0.07790000  1
  Ta  Ta2  1  0.33333333  0.16666667  0.57790000  1
  Ta  Ta2  1  0.33333333  0.66666667  0.07790000  1
  Ta  Ta2  1  0.33333333  0.66666667  0.57790000  1
  Ta  Ta2  1  0.83333333  0.16666667  0.07790000  1
  Ta  Ta2  1  0.83333333  0.16666667  0.57790000  1
  Ta  Ta2  1  0.83333333  0.66666667  0.07790000  1
  Ta  Ta2  1  0.83333333  0.66666667  0.57790000  1
  Co  Co1  1  0.16666667  0.33333333  0.06257000  1
  Co  Co1  1  0.16666667  0.33333333  0.56257000  1
  Co  Co1  1  0.16666667  0.83333333  0.06257000  1
  Co  Co1  1  0.16666667  0.83333333  0.56257000  1
  Co  Co1  1  0.66666667  0.33333333  0.06257000  1
  Co  Co1  1  0.66666667  0.33333333  0.56257000  1
  Co  Co1  1  0.66666667  0.83333333  0.06257000  1
  Co  Co1  1  0.66666667  0.83333333  0.56257000  1
  Co  Co1  1  0.33333333  0.16666667  0.31257000  1
  Co  Co1  1  0.33333333  0.16666667  0.81257000  1
  Co  Co1  1  0.33333333  0.66666667  0.31257000  1
  Co  Co1  1  0.33333333  0.66666667  0.81257000  1
  Co  Co1  1  0.83333333  0.16666667  0.31257000  1
  Co  Co1  1  0.83333333  0.16666667  0.81257000  1
  Co  Co1  1  0.83333333  0.66666667  0.31257000  1
  Co  Co1  1  0.83333333  0.66666667  0.81257000  1
  Co  Co1  1  0.16666667  0.33333333  0.18743000  1
  Co  Co1  1  0.16666667  0.33333333  0.68743000  1
  Co  Co1  1  0.16666667  0.83333333  0.18743000  1
  Co  Co1  1  0.16666667  0.83333333  0.68743000  1
  Co  Co1  1  0.66666667  0.33333333  0.18743000  1
  Co  Co1  1  0.66666667  0.33333333  0.68743000  1
  Co  Co1  1  0.66666667  0.83333333  0.18743000  1
  Co  Co1  1  0.66666667  0.83333333  0.68743000  1
  Co  Co1  1  0.33333333  0.16666667  0.43743000  1
  Co  Co1  1  0.33333333  0.16666667  0.93743000  1
  Co  Co1  1  0.33333333  0.66666667  0.43743000  1
  Co  Co1  1  0.33333333  0.66666667  0.93743000  1
  Co  Co1  1  0.83333333  0.16666667  0.43743000  1
  Co  Co1  1  0.83333333  0.16666667  0.93743000  1
  Co  Co1  1  0.83333333  0.66666667  0.43743000  1
  Co  Co1  1  0.83333333  0.66666667  0.93743000  1
  Co  Co3  1  0.08214500  0.16429000  0.12500000  1
  Co  Co3  1  0.08214500  0.16429000  0.62500000  1
  Co  Co3  1  0.08214500  0.66429000  0.12500000  1
  Co  Co3  1  0.08214500  0.66429000  0.62500000  1
  Co  Co3  1  0.58214500  0.16429000  0.12500000  1
  Co  Co3  1  0.58214500  0.16429000  0.62500000  1
  Co  Co3  1  0.58214500  0.66429000  0.12500000  1
  Co  Co3  1  0.58214500  0.66429000  0.62500000  1
  Co  Co3  1  0.41785500  0.08214500  0.37500000  1
  Co  Co3  1  0.41785500  0.08214500  0.87500000  1
  Co  Co3  1  0.41785500  0.58214500  0.37500000  1
  Co  Co3  1  0.41785500  0.58214500  0.87500000  1
  Co  Co3  1  0.91785500  0.08214500  0.37500000  1
  Co  Co3  1  0.91785500  0.08214500  0.87500000  1
  Co  Co3  1  0.91785500  0.58214500  0.37500000  1
  Co  Co3  1  0.91785500  0.58214500  0.87500000  1
  Co  Co3  1  0.33571000  0.41785500  0.12500000  1
  Co  Co3  1  0.33571000  0.41785500  0.62500000  1
  Co  Co3  1  0.33571000  0.91785500  0.12500000  1
  Co  Co3  1  0.33571000  0.91785500  0.62500000  1
  Co  Co3  1  0.83571000  0.41785500  0.12500000  1
  Co  Co3  1  0.83571000  0.41785500  0.62500000  1
  Co  Co3  1  0.83571000  0.91785500  0.12500000  1
  Co  Co3  1  0.83571000  0.91785500  0.62500000  1
  Co  Co3  1  0.41785500  0.33571000  0.37500000  1
  Co  Co3  1  0.41785500  0.33571000  0.87500000  1
  Co  Co3  1  0.41785500  0.83571000  0.37500000  1
  Co  Co3  1  0.41785500  0.83571000  0.87500000  1
  Co  Co3  1  0.91785500  0.33571000  0.37500000  1
  Co  Co3  1  0.91785500  0.33571000  0.87500000  1
  Co  Co3  1  0.91785500  0.83571000  0.37500000  1
  Co  Co3  1  0.91785500  0.83571000  0.87500000  1
  Co  Co3  1  0.08214500  0.41785500  0.12500000  1
  Co  Co3  1  0.08214500  0.41785500  0.62500000  1
  Co  Co3  1  0.08214500  0.91785500  0.12500000  1
  Co  Co3  1  0.08214500  0.91785500  0.62500000  1
  Co  Co3  1  0.58214500  0.41785500  0.12500000  1
  Co  Co3  1  0.58214500  0.41785500  0.62500000  1
  Co  Co3  1  0.58214500  0.91785500  0.12500000  1
  Co  Co3  1  0.58214500  0.91785500  0.62500000  1
  Co  Co3  1  0.16429000  0.08214500  0.37500000  1
  Co  Co3  1  0.16429000  0.08214500  0.87500000  1
  Co  Co3  1  0.16429000  0.58214500  0.37500000  1
  Co  Co3  1  0.16429000  0.58214500  0.87500000  1
  Co  Co3  1  0.66429000  0.08214500  0.37500000  1
  Co  Co3  1  0.66429000  0.08214500  0.87500000  1
  Co  Co3  1  0.66429000  0.58214500  0.37500000  1
  Co  Co3  1  0.66429000  0.58214500  0.87500000  1
  Co  Co2  1  0.25000000  0.00000000  0.00000000  1
  Co  Co2  1  0.25000000  0.00000000  0.50000000  1
  Co  Co2  1  0.25000000  0.50000000  0.00000000  1
  Co  Co2  1  0.25000000  0.50000000  0.50000000  1
  Co  Co2  1  0.75000000  0.00000000  0.00000000  1
  Co  Co2  1  0.75000000  0.00000000  0.50000000  1
  Co  Co2  1  0.75000000  0.50000000  0.00000000  1
  Co  Co2  1  0.75000000  0.50000000  0.50000000  1
  Co  Co2  1  0.25000000  0.25000000  0.25000000  1
  Co  Co2  1  0.25000000  0.25000000  0.75000000  1
  Co  Co2  1  0.25000000  0.75000000  0.25000000  1
  Co  Co2  1  0.25000000  0.75000000  0.75000000  1
  Co  Co2  1  0.75000000  0.25000000  0.25000000  1
  Co  Co2  1  0.75000000  0.25000000  0.75000000  1
  Co  Co2  1  0.75000000  0.75000000  0.25000000  1
  Co  Co2  1  0.75000000  0.75000000  0.75000000  1
  Co  Co2  1  0.00000000  0.25000000  0.00000000  1
  Co  Co2  1  0.00000000  0.25000000  0.50000000  1
  Co  Co2  1  0.00000000  0.75000000  0.00000000  1
  Co  Co2  1  0.00000000  0.75000000  0.50000000  1
  Co  Co2  1  0.50000000  0.25000000  0.00000000  1
  Co  Co2  1  0.50000000  0.25000000  0.50000000  1
  Co  Co2  1  0.50000000  0.75000000  0.00000000  1
  Co  Co2  1  0.50000000  0.75000000  0.50000000  1
  Co  Co2  1  0.25000000  0.00000000  0.25000000  1
  Co  Co2  1  0.25000000  0.00000000  0.75000000  1
  Co  Co2  1  0.25000000  0.50000000  0.25000000  1
  Co  Co2  1  0.25000000  0.50000000  0.75000000  1
  Co  Co2  1  0.75000000  0.00000000  0.25000000  1
  Co  Co2  1  0.75000000  0.00000000  0.75000000  1
  Co  Co2  1  0.75000000  0.50000000  0.25000000  1
  Co  Co2  1  0.75000000  0.50000000  0.75000000  1
  Co  Co2  1  0.25000000  0.25000000  0.00000000  1
  Co  Co2  1  0.25000000  0.25000000  0.50000000  1
  Co  Co2  1  0.25000000  0.75000000  0.00000000  1
  Co  Co2  1  0.25000000  0.75000000  0.50000000  1
  Co  Co2  1  0.75000000  0.25000000  0.00000000  1
  Co  Co2  1  0.75000000  0.25000000  0.50000000  1
  Co  Co2  1  0.75000000  0.75000000  0.00000000  1
  Co  Co2  1  0.75000000  0.75000000  0.50000000  1
  Co  Co2  1  0.00000000  0.25000000  0.25000000  1
  Co  Co2  1  0.00000000  0.25000000  0.75000000  1
  Co  Co2  1  0.00000000  0.75000000  0.25000000  1
  Co  Co2  1  0.00000000  0.75000000  0.75000000  1
  Co  Co2  1  0.50000000  0.25000000  0.25000000  1
  Co  Co2  1  0.50000000  0.25000000  0.75000000  1
  Co  Co2  1  0.50000000  0.75000000  0.25000000  1
  Co  Co2  1  0.50000000  0.75000000  0.75000000  1
